
     RDKit          2D

 26 29  0  0  0  0  0  0  0  0999 V2000
    5.7527   -0.7250    0.0000 C   0  0  0  0  0  0  0  0  0  0  0  0
    5.7516   -1.5523    0.0000 C   0  0  0  0  0  0  0  0  0  0  0  0
    6.4664   -1.9652    0.0000 C   0  0  0  0  0  0  0  0  0  0  0  0
    6.4646   -0.3122    0.0000 C   0  0  0  0  0  0  0  0  0  0  0  0
    7.1800   -0.7213    0.0000 C   0  0  0  0  0  0  0  0  0  0  0  0
    7.1834   -1.5498    0.0000 C   0  0  0  0  0  0  0  0  0  0  0  0
    7.8986   -1.9588    0.0000 O   0  0  0  0  0  0  0  0  0  0  0  0
    8.6150   -1.5439    0.0000 C   0  0  0  0  0  0  0  0  0  0  0  0
    8.6116   -0.7155    0.0000 C   0  0  0  0  0  0  0  0  0  0  0  0
    7.8918   -0.3019    0.0000 C   0  0  0  0  0  0  0  0  0  0  0  0
    7.8873    0.5231    0.0000 N   0  0  0  0  0  0  0  0  0  0  0  0
    7.1678    0.9405    0.0000 O   0  0  0  0  0  0  0  0  0  0  0  0
    6.4541    0.5267    0.0000 C   0  0  0  0  0  0  0  0  0  0  0  0
    5.7388    0.9378    0.0000 C   0  0  0  0  0  0  0  0  0  0  0  0
    5.7389    1.7615    0.0000 C   0  0  0  0  0  0  0  0  0  0  0  0
    5.0245    2.1726    0.0000 C   0  0  0  0  0  0  0  0  0  0  0  0
    4.3098    1.7587    0.0000 C   0  0  0  0  0  0  0  0  0  0  0  0
    4.3140    0.9295    0.0000 C   0  0  0  0  0  0  0  0  0  0  0  0
    5.0290    0.5221    0.0000 C   0  0  0  0  0  0  0  0  0  0  0  0
    9.3205   -0.2982    0.0000 N   0  0  0  0  0  0  0  0  0  0  0  0
    9.9812   -0.7924    0.0000 C   0  0  0  0  0  0  0  0  0  0  0  0
   10.6553   -0.3169    0.0000 C   0  0  0  0  0  0  0  0  0  0  0  0
   10.4113    0.4713    0.0000 N   0  0  0  0  0  0  0  0  0  0  0  0
    9.5864    0.4827    0.0000 C   0  0  0  0  0  0  0  0  0  0  0  0
    6.4530    2.1745    0.0000 Cl  0  0  0  0  0  0  0  0  0  0  0  0
    3.5940    2.1689    0.0000 Cl  0  0  0  0  0  0  0  0  0  0  0  0
 13 14  1  0
  2  3  1  0
 14 15  2  0
  3  6  2  0
 15 16  1  0
 16 17  2  0
  5  4  2  0
 17 18  1  0
  5 10  1  0
 18 19  2  0
 19 14  1  0
 20 21  1  0
  6  7  1  0
  7  8  1  0
  8  9  1  0
  9 10  1  0
  4  1  1  0
 21 22  2  0
 22 23  1  0
 23 24  2  0
 24 20  1  0
  9 20  1  0
 10 11  2  0
 15 25  1  0
  5  6  1  0
 17 26  1  0
 11 12  1  0
  1  2  2  0
 12 13  1  0
M  END

> <chembl_id>
CHEMBL1739638

> <chembl_pref_name>
None

$$$$

     RDKit          2D

 68 69  0  0  0  0  0  0  0  0999 V2000
   18.2609  -12.6835    0.0000 C   0  0  0  0  0  0  0  0  0  0  0  0
   17.5484  -12.2834    0.0000 C   0  0  0  0  0  0  0  0  0  0  0  0
   18.2700  -13.5018    0.0000 O   0  0  0  0  0  0  0  0  0  0  0  0
   18.9644  -12.2653    0.0000 O   0  0  0  0  0  0  0  0  0  0  0  0
   17.5386  -11.4663    0.0000 F   0  0  0  0  0  0  0  0  0  0  0  0
   16.8456  -12.7005    0.0000 F   0  0  0  0  0  0  0  0  0  0  0  0
   16.8379  -11.8730    0.0000 F   0  0  0  0  0  0  0  0  0  0  0  0
   13.0872  -10.5016    0.0000 C   0  0  0  0  0  0  0  0  0  0  0  0
   13.7989  -10.0891    0.0000 C   0  0  0  0  0  0  0  0  0  0  0  0
   14.5147  -10.5016    0.0000 C   0  0  0  0  0  0  0  0  0  0  0  0
   15.2265  -10.0891    0.0000 C   0  0  0  0  0  0  0  0  0  0  0  0
   13.0872  -11.3266    0.0000 O   0  0  0  0  0  0  0  0  0  0  0  0
   12.3714  -10.0891    0.0000 N   0  0  0  0  0  0  0  0  0  0  0  0
   15.9423  -10.5016    0.0000 O   0  0  0  0  0  0  0  0  0  0  0  0
   15.2265   -9.2641    0.0000 N   0  0  0  0  0  0  0  0  0  0  0  0
   15.9423   -8.8517    0.0000 C   0  0  0  0  0  0  0  0  0  0  0  0
   16.6582   -9.2641    0.0000 C   0  0  0  0  0  0  0  0  0  0  0  0
   17.3741   -8.8517    0.0000 O   0  0  0  0  0  0  0  0  0  0  0  0
   18.0857   -9.2641    0.0000 C   0  0  0  0  0  0  0  0  0  0  0  0
   18.8016   -8.8517    0.0000 C   0  0  0  0  0  0  0  0  0  0  0  0
   19.5133   -9.2641    0.0000 O   0  0  0  0  0  0  0  0  0  0  0  0
   20.2292   -8.8517    0.0000 C   0  0  0  0  0  0  0  0  0  0  0  0
   20.9449   -9.2641    0.0000 C   0  0  0  0  0  0  0  0  0  0  0  0
   21.6608   -8.8517    0.0000 N   0  0  0  0  0  0  0  0  0  0  0  0
    8.7963  -11.3266    0.0000 C   0  0  0  0  0  0  0  0  0  0  0  0
    8.0845  -11.7391    0.0000 N   0  0  0  0  0  0  0  0  0  0  0  0
    8.0845  -12.5641    0.0000 C   0  0  0  0  0  0  0  0  0  0  0  0
    7.3687  -12.9766    0.0000 C   0  0  0  0  0  0  0  0  0  0  0  0
    7.3687  -13.8016    0.0000 C   0  0  0  0  0  0  0  0  0  0  0  0
    8.0845  -14.2141    0.0000 C   0  0  0  0  0  0  0  0  0  0  0  0
    8.7963  -13.8016    0.0000 C   0  0  0  0  0  0  0  0  0  0  0  0
    9.5121  -14.2141    0.0000 N   0  0  0  0  0  0  0  0  0  0  0  0
   10.2279  -13.8016    0.0000 C   0  0  0  0  0  0  0  0  0  0  0  0
   10.2279  -12.9766    0.0000 N   0  0  0  0  0  0  0  0  0  0  0  0
   10.9396  -12.5641    0.0000 C   0  0  0  0  0  0  0  0  0  0  0  0
   10.9396  -11.7391    0.0000 N   0  0  0  0  0  0  0  0  0  0  0  0
   11.6555  -11.3266    0.0000 C   0  0  0  0  0  0  0  0  0  0  0  0
   11.6555  -10.5016    0.0000 C   0  0  0  0  0  0  0  0  0  0  0  0
    8.7963  -10.5016    0.0000 C   0  0  0  0  0  0  0  0  0  0  0  0
    8.0845  -10.0891    0.0000 C   0  0  0  0  0  0  0  0  0  0  0  0
    8.0845   -9.2641    0.0000 C   0  0  0  0  0  0  0  0  0  0  0  0
    8.7963   -8.8517    0.0000 C   0  0  0  0  0  0  0  0  0  0  0  0
    9.5121   -9.2641    0.0000 C   0  0  0  0  0  0  0  0  0  0  0  0
    9.5121  -10.0891    0.0000 C   0  0  0  0  0  0  0  0  0  0  0  0
    8.7963   -8.0267    0.0000 C   0  0  0  0  0  0  0  0  0  0  0  0
    9.5121   -7.6142    0.0000 N   0  0  0  0  0  0  0  0  0  0  0  0
    9.5121   -6.7892    0.0000 C   0  0  0  0  0  0  0  0  0  0  0  0
   10.2279   -6.3767    0.0000 O   0  0  0  0  0  0  0  0  0  0  0  0
    8.7963   -6.3767    0.0000 N   0  0  0  0  0  0  0  0  0  0  0  0
   11.6555  -12.9766    0.0000 O   0  0  0  0  0  0  0  0  0  0  0  0
    8.7963  -12.9766    0.0000 O   0  0  0  0  0  0  0  0  0  0  0  0
    6.6570  -12.5641    0.0000 N   0  0  0  0  0  0  0  0  0  0  0  0
    5.9412  -12.9766    0.0000 C   0  0  0  0  0  0  0  0  0  0  0  0
    5.9412  -13.8016    0.0000 O   0  0  0  0  0  0  0  0  0  0  0  0
    5.2253  -12.5641    0.0000 C   0  0  0  0  0  0  0  0  0  0  0  0
    4.5094  -12.9766    0.0000 C   0  0  0  0  0  0  0  0  0  0  0  0
    4.5094  -13.8016    0.0000 C   0  0  0  0  0  0  0  0  0  0  0  0
    3.7977  -14.2141    0.0000 C   0  0  0  0  0  0  0  0  0  0  0  0
    3.0818  -13.8016    0.0000 C   0  0  0  0  0  0  0  0  0  0  0  0
    3.0818  -12.9766    0.0000 C   0  0  0  0  0  0  0  0  0  0  0  0
    3.7977  -12.5641    0.0000 C   0  0  0  0  0  0  0  0  0  0  0  0
    5.2253  -11.7391    0.0000 C   0  0  0  0  0  0  0  0  0  0  0  0
    4.5094  -11.3266    0.0000 C   0  0  0  0  0  0  0  0  0  0  0  0
    4.5094  -10.5016    0.0000 C   0  0  0  0  0  0  0  0  0  0  0  0
    5.2253  -10.0891    0.0000 C   0  0  0  0  0  0  0  0  0  0  0  0
    5.9412  -10.5016    0.0000 C   0  0  0  0  0  0  0  0  0  0  0  0
    5.9412  -11.3266    0.0000 C   0  0  0  0  0  0  0  0  0  0  0  0
   10.9396  -14.2141    0.0000 N   0  0  0  0  0  0  0  0  0  0  0  0
  1  2  1  0
  1  3  2  0
  1  4  1  0
  2  5  1  0
  2  6  1  0
  2  7  1  0
  8  9  1  0
  9 10  1  0
 10 11  1  0
  8 12  2  0
  8 13  1  0
 11 14  2  0
 11 15  1  0
 16 17  1  0
 19 20  1  0
 18 19  1  0
 22 23  1  0
 21 22  1  0
 23 24  1  0
 20 21  1  0
 17 18  1  0
 15 16  1  0
 25 26  1  0
 26 27  1  0
 28 27  1  0
 28 29  1  0
 29 30  1  0
 30 31  1  0
 31 32  1  0
 32 33  1  0
 33 34  2  0
 34 35  1  0
 35 36  1  0
 36 37  1  0
 37 38  1  0
 39 40  1  0
 40 41  2  0
 41 42  1  0
 42 43  2  0
 43 44  1  0
 39 44  2  0
 46 47  1  0
 47 48  2  0
 47 49  1  0
 45 46  1  0
 42 45  1  0
 25 39  1  0
 35 50  2  0
 27 51  2  0
 53 54  2  0
 53 55  1  0
 52 53  1  0
 56 57  1  0
 57 58  2  0
 58 59  1  0
 59 60  2  0
 60 61  1  0
 56 61  2  0
 55 56  1  0
 62 63  1  0
 63 64  2  0
 64 65  1  0
 65 66  2  0
 66 67  1  0
 62 67  2  0
 55 62  1  0
 28 52  1  6
 33 68  1  0
 13 38  1  0
M  END

> <chembl_id>
CHEMBL2440909

> <chembl_pref_name>
None

$$$$

     RDKit          2D

 25 27  0  0  0  0  0  0  0  0999 V2000
   -0.8072   -1.6405    0.0000 Cl  0  0  0  0  0  0  0  0  0  0  0  0
    1.3362   -0.4030    0.0000 O   0  0  0  0  0  0  0  0  0  0  0  0
    0.6218   -1.6405    0.0000 O   0  0  0  0  0  0  0  0  0  0  0  0
   -0.8072    1.6595    0.0000 N   0  0  0  0  0  0  0  0  0  0  0  0
   -0.0927    4.5470    0.0000 N   0  0  0  0  0  0  0  0  0  0  0  0
   -0.0927    2.0720    0.0000 N   0  0  0  0  0  0  0  0  0  0  0  0
   -0.0927   -0.4030    0.0000 C   0  0  0  0  0  0  0  0  0  0  0  0
   -0.8072    0.8345    0.0000 C   0  0  0  0  0  0  0  0  0  0  0  0
   -0.8072   -0.8155    0.0000 C   0  0  0  0  0  0  0  0  0  0  0  0
   -0.0927    0.4220    0.0000 C   0  0  0  0  0  0  0  0  0  0  0  0
    0.6218   -0.8155    0.0000 C   0  0  0  0  0  0  0  0  0  0  0  0
   -1.5216    0.4220    0.0000 C   0  0  0  0  0  0  0  0  0  0  0  0
   -1.5216   -0.4030    0.0000 C   0  0  0  0  0  0  0  0  0  0  0  0
   -0.0927    2.8970    0.0000 C   0  0  0  0  0  0  0  0  0  0  0  0
    0.6218    3.3095    0.0000 C   0  0  0  0  0  0  0  0  0  0  0  0
   -0.8072    3.3095    0.0000 C   0  0  0  0  0  0  0  0  0  0  0  0
    0.6218    4.1345    0.0000 C   0  0  0  0  0  0  0  0  0  0  0  0
   -0.8072    4.1345    0.0000 C   0  0  0  0  0  0  0  0  0  0  0  0
   -0.0927    5.3720    0.0000 C   0  0  0  0  0  0  0  0  0  0  0  0
    0.6218    5.7845    0.0000 C   0  0  0  0  0  0  0  0  0  0  0  0
    0.6218    6.6095    0.0000 C   0  0  0  0  0  0  0  0  0  0  0  0
    1.3362    5.3720    0.0000 C   0  0  0  0  0  0  0  0  0  0  0  0
    1.3362    7.0220    0.0000 C   0  0  0  0  0  0  0  0  0  0  0  0
    2.0507    5.7845    0.0000 C   0  0  0  0  0  0  0  0  0  0  0  0
    2.0507    6.6095    0.0000 C   0  0  0  0  0  0  0  0  0  0  0  0
  1  9  1  0
  2 11  2  0
  3 11  1  0
  4  6  1  0
  4  8  1  0
  5 17  1  0
  5 18  1  0
  5 19  1  0
  6 14  2  0
  7  9  1  0
  7 10  2  0
  7 11  1  0
  8 10  1  0
  8 12  2  0
  9 13  2  0
 12 13  1  0
 14 15  1  0
 14 16  1  0
 15 17  1  0
 16 18  1  0
 19 20  1  0
 20 21  2  0
 20 22  1  0
 21 23  1  0
 22 24  2  0
 23 25  2  0
 24 25  1  0
M  END

> <chembl_id>
CHEMBL1347694

> <chembl_pref_name>
None

$$$$

     RDKit          2D

 21 23  0  0  0  0  0  0  0  0999 V2000
   -0.1361    0.0786    0.0000 S   0  0  0  0  0  0  0  0  0  0  0  0
    1.2929    0.0786    0.0000 N   0  0  0  0  0  0  0  0  0  0  0  0
    1.2929   -1.5714    0.0000 N   0  0  0  0  0  0  0  0  0  0  0  0
    0.5784    1.3161    0.0000 C   0  0  0  0  0  0  0  0  0  0  0  0
   -0.1361    0.9036    0.0000 C   0  0  0  0  0  0  0  0  0  0  0  0
    1.2929    0.9036    0.0000 C   0  0  0  0  0  0  0  0  0  0  0  0
    0.5784    2.1411    0.0000 C   0  0  0  0  0  0  0  0  0  0  0  0
   -0.8506    1.3161    0.0000 C   0  0  0  0  0  0  0  0  0  0  0  0
   -0.8506   -0.3339    0.0000 C   0  0  0  0  0  0  0  0  0  0  0  0
    2.0073   -0.3339    0.0000 C   0  0  0  0  0  0  0  0  0  0  0  0
    0.5784   -0.3339    0.0000 C   0  0  0  0  0  0  0  0  0  0  0  0
   -0.1361    2.5536    0.0000 C   0  0  0  0  0  0  0  0  0  0  0  0
   -0.8506    2.1411    0.0000 C   0  0  0  0  0  0  0  0  0  0  0  0
    2.0073   -1.1589    0.0000 C   0  0  0  0  0  0  0  0  0  0  0  0
    0.5784   -1.1589    0.0000 C   0  0  0  0  0  0  0  0  0  0  0  0
   -0.8506   -1.1589    0.0000 C   0  0  0  0  0  0  0  0  0  0  0  0
   -1.5650    0.0786    0.0000 C   0  0  0  0  0  0  0  0  0  0  0  0
   -1.5650   -1.5714    0.0000 C   0  0  0  0  0  0  0  0  0  0  0  0
   -2.2795   -0.3339    0.0000 C   0  0  0  0  0  0  0  0  0  0  0  0
   -2.2795   -1.1589    0.0000 C   0  0  0  0  0  0  0  0  0  0  0  0
    1.2929   -2.3964    0.0000 C   0  0  0  0  0  0  0  0  0  0  0  0
  1  5  1  0
  1  9  1  0
  2  6  1  0
  2 10  1  0
  2 11  1  0
  3 14  1  0
  3 15  1  0
  3 21  1  0
  4  5  1  0
  4  6  1  0
  4  7  2  0
  5  8  2  0
  7 12  1  0
  8 13  1  0
  9 16  2  0
  9 17  1  0
 10 14  1  0
 11 15  1  0
 12 13  2  0
 16 18  1  0
 17 19  2  0
 18 20  2  0
 19 20  1  0
M  END

> <chembl_id>
CHEMBL1624521

> <chembl_pref_name>
None

$$$$

     RDKit          2D

 27 30  0  0  0  0  0  0  0  0999 V2000
   -1.2964   -1.4973    0.0000 N   0  0  0  0  0  0  0  0  0  0  0  0
   -2.6111    0.7486    0.0000 C   0  0  0  0  0  0  0  0  0  0  0  0
    0.0000   -0.7486    0.0000 C   0  0  0  0  0  0  0  0  0  0  0  0
    0.0000    0.7486    0.0000 C   0  0  0  0  0  0  0  0  0  0  0  0
    1.2964   -1.4973    0.0000 C   0  0  0  0  0  0  0  0  0  0  0  0
   -2.6111   -0.7486    0.0000 C   0  0  0  0  0  0  0  0  0  0  0  0
   -1.2964    1.4973    0.0000 C   0  0  0  0  0  0  0  0  0  0  0  0
    2.5929   -0.7486    0.0000 C   0  0  0  0  0  0  0  0  0  0  0  0
    3.8926   -1.4990    0.0000 N   0  0  0  0  0  0  0  0  0  0  0  0
    2.5929    0.7486    0.0000 C   0  0  0  0  0  0  0  0  0  0  0  0
   -1.2919   -2.9980    0.0000 C   0  0  0  0  0  0  0  0  0  0  0  0
    1.2964    1.4973    0.0000 C   0  0  0  0  0  0  0  0  0  0  0  0
   -3.9122    1.4966    0.0000 C   0  0  0  0  0  0  0  0  0  0  0  0
   -2.0394   -4.2074    0.0000 C   0  0  0  0  0  0  0  0  0  0  0  0
   -0.5394   -4.2042    0.0000 C   0  0  0  0  0  0  0  0  0  0  0  0
    5.2449   -0.8800    0.0000 C   0  0  0  0  0  0  0  0  0  0  0  0
    4.0282   -2.9800    0.0000 C   0  0  0  0  0  0  0  0  0  0  0  0
   -1.2928    2.6973    0.0000 O   0  0  0  0  0  0  0  0  0  0  0  0
    1.2964   -2.6973    0.0000 N   0  0  0  0  0  0  0  0  0  0  0  0
   -4.9506    0.8952    0.0000 O   0  0  0  0  0  0  0  0  0  0  0  0
    6.2469   -1.9962    0.0000 C   0  0  0  0  0  0  0  0  0  0  0  0
    3.6321    1.3486    0.0000 F   0  0  0  0  0  0  0  0  0  0  0  0
   -3.9141    2.6966    0.0000 O   0  0  0  0  0  0  0  0  0  0  0  0
    5.4950   -3.2941    0.0000 C   0  0  0  0  0  0  0  0  0  0  0  0
    8.6161   -3.0617    0.0000 N   0  0  0  0  0  0  0  0  0  0  0  0
    7.7375   -1.8450    0.0000 C   0  0  0  0  0  0  0  0  0  0  0  0
    9.8100   -2.9406    0.0000 C   0  0  0  0  0  0  0  0  0  0  0  0
  1  3  1  0
  3  4  1  0
  3  5  2  0
  1  6  1  0
  2  6  2  0
  2  7  1  0
  4  7  1  0
  5  8  1  0
  8  9  1  0
  8 10  2  0
  1 11  1  0
  4 12  2  0
 10 12  1  0
  2 13  1  0
 11 14  1  0
 11 15  1  0
 14 15  1  0
  9 16  1  0
  9 17  1  0
  7 18  2  0
  5 19  1  0
 13 20  2  0
 16 21  1  0
 10 22  1  0
 13 23  1  0
 17 24  1  0
 21 24  1  0
 21 26  1  0
 25 26  1  0
 25 27  1  0
M  END

> <chembl_id>
CHEMBL1190694

> <chembl_pref_name>
None

$$$$

     RDKit          2D

 27 29  0  0  0  0  0  0  0  0999 V2000
    2.5612    2.3557    0.0000 O   0  0  0  0  0  0  0  0  0  0  0  0
   -1.0112    3.5932    0.0000 O   0  0  0  0  0  0  0  0  0  0  0  0
   -0.2967    0.7057    0.0000 O   0  0  0  0  0  0  0  0  0  0  0  0
    3.9901   -0.1193    0.0000 O   0  0  0  0  0  0  0  0  0  0  0  0
    3.2756   -1.3568    0.0000 O   0  0  0  0  0  0  0  0  0  0  0  0
    1.1322    2.3557    0.0000 N   0  0  0  0  0  0  0  0  0  0  0  0
   -0.2967    2.3557    0.0000 N   0  0  0  0  0  0  0  0  0  0  0  0
    3.2756   -0.5318    0.0000 N   0  0  0  0  0  0  0  0  0  0  0  0
    0.4178    3.5932    0.0000 C   0  0  0  0  0  0  0  0  0  0  0  0
    1.8467    1.1182    0.0000 C   0  0  0  0  0  0  0  0  0  0  0  0
    1.1322    3.1807    0.0000 C   0  0  0  0  0  0  0  0  0  0  0  0
    2.5612    0.7057    0.0000 C   0  0  0  0  0  0  0  0  0  0  0  0
    1.8467    1.9432    0.0000 C   0  0  0  0  0  0  0  0  0  0  0  0
   -0.2967    3.1807    0.0000 C   0  0  0  0  0  0  0  0  0  0  0  0
    2.5612   -0.1193    0.0000 C   0  0  0  0  0  0  0  0  0  0  0  0
    1.1322    0.7057    0.0000 C   0  0  0  0  0  0  0  0  0  0  0  0
    0.4178    4.4182    0.0000 C   0  0  0  0  0  0  0  0  0  0  0  0
    1.8467    3.5932    0.0000 C   0  0  0  0  0  0  0  0  0  0  0  0
    1.8467   -0.5318    0.0000 C   0  0  0  0  0  0  0  0  0  0  0  0
    1.1322   -0.1193    0.0000 C   0  0  0  0  0  0  0  0  0  0  0  0
    1.1322    4.8307    0.0000 C   0  0  0  0  0  0  0  0  0  0  0  0
    1.8467    4.4182    0.0000 C   0  0  0  0  0  0  0  0  0  0  0  0
   -1.0112    1.9432    0.0000 C   0  0  0  0  0  0  0  0  0  0  0  0
    0.4178    1.9432    0.0000 C   0  0  0  0  0  0  0  0  0  0  0  0
    3.2756    1.1182    0.0000 C   0  0  0  0  0  0  0  0  0  0  0  0
   -1.0112    1.1182    0.0000 C   0  0  0  0  0  0  0  0  0  0  0  0
    0.4178    1.1182    0.0000 C   0  0  0  0  0  0  0  0  0  0  0  0
  1 13  2  0
  2 14  2  0
  3 26  1  0
  3 27  1  0
  4  8  1  0
  5  8  2  0
  6 11  1  0
  6 13  1  0
  7 14  1  0
  7 23  1  0
  7 24  1  0
  8 15  1  0
  9 11  1  0
  9 14  1  0
  9 17  2  0
 10 12  2  0
 10 13  1  0
 10 16  1  0
 11 18  2  0
 12 15  1  0
 12 25  1  0
 15 19  2  0
 16 20  2  0
 17 21  1  0
 18 22  1  0
 19 20  1  0
 21 22  2  0
 23 26  1  0
 24 27  1  0
M  CHG  2   4  -1   8   1
M  END

> <chembl_id>
CHEMBL1400699

> <chembl_pref_name>
None

$$$$

     RDKit          2D

 15 15  0  0  0  0  0  0  0  0999 V2000
   34.8801   -2.3602    0.0000 C   0  0  0  0  0  0  0  0  0  0  0  0
   35.5953   -2.7717    0.0000 N   0  0  0  0  0  0  0  0  0  0  0  0
   36.3092   -2.3580    0.0000 C   0  0  0  0  0  0  0  0  0  0  0  0
   37.0243   -2.7694    0.0000 N   0  0  0  0  0  0  0  0  0  0  0  0
   36.3079   -1.5330    0.0000 N   0  0  0  0  0  0  0  0  0  0  0  0
   37.7382   -2.3558    0.0000 C   0  0  0  0  0  0  0  0  0  0  0  0
   38.4533   -2.7672    0.0000 N   0  0  0  0  0  0  0  0  0  0  0  0
   37.7369   -1.5308    0.0000 N   0  0  0  0  0  0  0  0  0  0  0  0
   34.1663   -2.7740    0.0000 C   0  0  0  0  0  0  0  0  0  0  0  0
   33.4554   -2.3590    0.0000 C   0  0  0  0  0  0  0  0  0  0  0  0
   32.7420   -2.7720    0.0000 C   0  0  0  0  0  0  0  0  0  0  0  0
   32.7428   -3.5979    0.0000 C   0  0  0  0  0  0  0  0  0  0  0  0
   33.4630   -4.0091    0.0000 C   0  0  0  0  0  0  0  0  0  0  0  0
   34.1734   -3.5938    0.0000 C   0  0  0  0  0  0  0  0  0  0  0  0
   32.0295   -4.0124    0.0000 Cl  0  0  0  0  0  0  0  0  0  0  0  0
  1  2  1  0
  2  3  2  0
  3  4  1  0
  3  5  1  0
  4  6  2  0
  6  7  1  0
  6  8  1  0
  1  9  1  0
  9 10  2  0
 10 11  1  0
 11 12  2  0
 12 13  1  0
 13 14  2  0
 14  9  1  0
 12 15  1  0
M  END

> <chembl_id>
CHEMBL4117356

> <chembl_pref_name>
None

$$$$

     RDKit          2D

 27 29  0  0  0  0  0  0  0  0999 V2000
   -3.0750   -4.1792    0.0000 N   0  0  0  0  0  0  0  0  0  0  0  0
   -2.3583   -4.5917    0.0000 C   0  0  0  0  0  0  0  0  0  0  0  0
   -2.5333   -5.4042    0.0000 N   0  0  0  0  0  0  0  0  0  0  0  0
   -1.6458   -4.1792    0.0000 C   0  0  0  0  0  0  0  0  0  0  0  0
   -3.6958   -4.7292    0.0000 C   0  0  0  0  0  0  0  0  0  0  0  0
   -3.3500   -5.4792    0.0000 C   0  0  0  0  0  0  0  0  0  0  0  0
    2.6500   -0.8542    0.0000 C   0  0  0  0  0  0  0  0  0  0  0  0
   -1.6458   -3.3417    0.0000 C   0  0  0  0  0  0  0  0  0  0  0  0
    1.9417   -2.0917    0.0000 N   0  0  0  0  0  0  0  0  0  0  0  0
    3.3625   -0.4417    0.0000 C   0  0  0  0  0  0  0  0  0  0  0  0
    2.6542   -1.6792    0.0000 N   0  0  0  0  0  0  0  0  0  0  0  0
    1.9292   -0.4417    0.0000 O   0  0  0  0  0  0  0  0  0  0  0  0
    4.0750   -0.8542    0.0000 C   0  0  0  0  0  0  0  0  0  0  0  0
    3.3625    0.3958    0.0000 C   0  0  0  0  0  0  0  0  0  0  0  0
    1.2250   -1.6792    0.0000 C   0  0  0  0  0  0  0  0  0  0  0  0
   -0.9250   -2.9292    0.0000 C   0  0  0  0  0  0  0  0  0  0  0  0
   -3.1583   -3.3542    0.0000 C   0  0  0  0  0  0  0  0  0  0  0  0
    4.7917    0.3958    0.0000 C   0  0  0  0  0  0  0  0  0  0  0  0
    0.5042   -2.1042    0.0000 C   0  0  0  0  0  0  0  0  0  0  0  0
    5.5125    0.8083    0.0000 N   0  0  0  0  0  0  0  0  0  0  0  0
    4.7917   -0.4417    0.0000 C   0  0  0  0  0  0  0  0  0  0  0  0
    4.0750    0.8083    0.0000 C   0  0  0  0  0  0  0  0  0  0  0  0
   -0.2125   -3.3417    0.0000 C   0  0  0  0  0  0  0  0  0  0  0  0
   -0.9250   -2.1042    0.0000 C   0  0  0  0  0  0  0  0  0  0  0  0
   -0.2125   -1.6917    0.0000 C   0  0  0  0  0  0  0  0  0  0  0  0
    0.5042   -2.9292    0.0000 C   0  0  0  0  0  0  0  0  0  0  0  0
   -1.9875   -6.0167    0.0000 C   0  0  0  0  0  0  0  0  0  0  0  0
  2  1  2  0
  3  2  1  0
  4  2  1  0
  5  1  1  0
  6  5  2  0
  7 11  1  0
  8  4  2  0
  9 15  2  0
 10  7  1  0
 11  9  1  0
 12  7  2  0
 13 10  2  0
 14 10  1  0
 15 19  1  0
 16  8  1  0
 17  1  1  0
 18 22  1  0
 19 25  1  0
 20 18  1  0
 21 13  1  0
 22 14  2  0
 23 16  2  0
 24 16  1  0
 25 24  2  0
 26 23  1  0
 27  3  1  0
  6  3  1  0
 26 19  2  0
 21 18  2  0
M  CHG  1   1   1
M  END

> <chembl_id>
CHEMBL1179909

> <chembl_pref_name>
None

$$$$

     RDKit          2D

 25 26  0  0  0  0  0  0  0  0999 V2000
    0.1196   -1.1972    0.0000 S   0  0  0  0  0  0  0  0  0  0  0  0
   -2.0238    0.8653    0.0000 S   0  0  0  0  0  0  0  0  0  0  0  0
    0.9446   -1.1972    0.0000 O   0  0  0  0  0  0  0  0  0  0  0  0
   -0.7054   -1.1972    0.0000 O   0  0  0  0  0  0  0  0  0  0  0  0
    0.1196   -3.6722    0.0000 O   0  0  0  0  0  0  0  0  0  0  0  0
   -2.7383    0.4528    0.0000 O   0  0  0  0  0  0  0  0  0  0  0  0
   -2.4363    1.5798    0.0000 O   0  0  0  0  0  0  0  0  0  0  0  0
    0.1196   -2.0222    0.0000 N   0  0  0  0  0  0  0  0  0  0  0  0
    0.1196    2.1028    0.0000 N   0  0  0  0  0  0  0  0  0  0  0  0
   -1.3093    1.2778    0.0000 N   0  0  0  0  0  0  0  0  0  0  0  0
    0.1196   -0.3722    0.0000 C   0  0  0  0  0  0  0  0  0  0  0  0
   -0.5948    0.8653    0.0000 C   0  0  0  0  0  0  0  0  0  0  0  0
    0.1196    1.2778    0.0000 C   0  0  0  0  0  0  0  0  0  0  0  0
   -0.5948    0.0403    0.0000 C   0  0  0  0  0  0  0  0  0  0  0  0
    0.8341    0.0403    0.0000 C   0  0  0  0  0  0  0  0  0  0  0  0
    0.8341    0.8653    0.0000 C   0  0  0  0  0  0  0  0  0  0  0  0
   -0.5948   -2.4347    0.0000 C   0  0  0  0  0  0  0  0  0  0  0  0
    0.8341   -2.4347    0.0000 C   0  0  0  0  0  0  0  0  0  0  0  0
   -0.5948   -3.2597    0.0000 C   0  0  0  0  0  0  0  0  0  0  0  0
    0.8341   -3.2597    0.0000 C   0  0  0  0  0  0  0  0  0  0  0  0
    0.8341    2.5153    0.0000 C   0  0  0  0  0  0  0  0  0  0  0  0
   -0.5948    2.5153    0.0000 C   0  0  0  0  0  0  0  0  0  0  0  0
   -1.6113    0.1509    0.0000 C   0  0  0  0  0  0  0  0  0  0  0  0
    0.8341    3.3403    0.0000 C   0  0  0  0  0  0  0  0  0  0  0  0
   -0.5948    3.3403    0.0000 C   0  0  0  0  0  0  0  0  0  0  0  0
  1  3  2  0
  1  4  2  0
  1  8  1  0
  1 11  1  0
  2  6  2  0
  2  7  2  0
  2 10  1  0
  2 23  1  0
  5 19  1  0
  5 20  1  0
  8 17  1  0
  8 18  1  0
  9 13  1  0
  9 21  1  0
  9 22  1  0
 10 12  1  0
 11 14  1  0
 11 15  2  0
 12 13  1  0
 12 14  2  0
 13 16  2  0
 15 16  1  0
 17 19  1  0
 18 20  1  0
 21 24  1  0
 22 25  1  0
M  END

> <chembl_id>
CHEMBL1341694

> <chembl_pref_name>
None

$$$$

     RDKit          2D

 35 36  0  0  0  0  0  0  0  0999 V2000
    2.3500    0.2958    0.0000 C   0  0  0  0  0  0  0  0  0  0  0  0
   -2.5333   -0.3000    0.0000 C   0  0  0  0  0  0  0  0  0  0  0  0
   -2.3208    0.4083    0.0000 C   0  0  0  0  0  0  0  0  0  0  0  0
    2.1292   -0.4167    0.0000 C   0  0  0  0  0  0  0  0  0  0  0  0
   -1.0750    0.0625    0.0000 C   0  0  0  0  0  0  0  0  0  0  0  0
    0.8917   -0.0667    0.0000 C   0  0  0  0  0  0  0  0  0  0  0  0
   -2.0000   -0.8417    0.0000 C   0  0  0  0  0  0  0  0  0  0  0  0
    1.8375    0.8208    0.0000 C   0  0  0  0  0  0  0  0  0  0  0  0
   -1.6000    0.5958    0.0000 C   0  0  0  0  0  0  0  0  0  0  0  0
    1.4167   -0.5917    0.0000 C   0  0  0  0  0  0  0  0  0  0  0  0
   -0.3458    0.2625    0.0000 C   0  0  0  0  0  0  0  0  0  0  0  0
    0.1792   -0.2625    0.0000 C   0  0  0  0  0  0  0  0  0  0  0  0
   -1.2875   -0.6417    0.0000 C   0  0  0  0  0  0  0  0  0  0  0  0
    1.1042    0.6458    0.0000 C   0  0  0  0  0  0  0  0  0  0  0  0
    3.0917    0.4625    0.0000 O   0  0  0  0  0  0  0  0  0  0  0  0
   -3.2750   -0.4625    0.0000 O   0  0  0  0  0  0  0  0  0  0  0  0
   -2.8458    0.9583    0.0000 O   0  0  0  0  0  0  0  0  0  0  0  0
    2.6417   -0.9792    0.0000 O   0  0  0  0  0  0  0  0  0  0  0  0
    3.5542    1.1000    0.0000 C   0  0  0  0  0  0  0  0  0  0  0  0
   -3.4875   -1.1750    0.0000 C   0  0  0  0  0  0  0  0  0  0  0  0
   -3.5708    0.7833    0.0000 C   0  0  0  0  0  0  0  0  0  0  0  0
    3.3750   -0.8292    0.0000 C   0  0  0  0  0  0  0  0  0  0  0  0
    4.2542    1.1000    0.0000 O   0  0  0  0  0  0  0  0  0  0  0  0
    3.8917   -1.3500    0.0000 O   0  0  0  0  0  0  0  0  0  0  0  0
   -4.1208    1.2875    0.0000 O   0  0  0  0  0  0  0  0  0  0  0  0
   -4.2083   -1.3750    0.0000 O   0  0  0  0  0  0  0  0  0  0  0  0
    2.0375    1.5583    0.0000 F   0  0  0  0  0  0  0  0  0  0  0  0
   -2.2000   -1.5750    0.0000 F   0  0  0  0  0  0  0  0  0  0  0  0
   -0.0333   -0.9917    0.0000 C   0  0  0  0  0  0  0  0  0  0  0  0
   -0.1458    0.9875    0.0000 C   0  0  0  0  0  0  0  0  0  0  0  0
   -3.8333    0.0708    0.0000 C   0  0  0  0  0  0  0  0  0  0  0  0
    3.6417   -0.1292    0.0000 C   0  0  0  0  0  0  0  0  0  0  0  0
   -3.0208   -1.7542    0.0000 C   0  0  0  0  0  0  0  0  0  0  0  0
    3.2250    1.7625    0.0000 C   0  0  0  0  0  0  0  0  0  0  0  0
    0.4917   -1.5167    0.0000 C   0  0  0  0  0  0  0  0  0  0  0  0
  2  7  2  0
  3  9  2  0
  4  1  1  0
  5 11  1  0
  6 14  2  0
  7 13  1  0
  8  1  2  0
  9  5  1  0
 10  4  2  0
 11 12  1  0
 12  6  1  0
 13  5  2  0
 14  8  1  0
 15  1  1  0
 16  2  1  0
 17  3  1  0
 18  4  1  0
 19 15  1  0
 20 16  1  0
 21 17  1  0
 22 18  1  0
 23 19  2  0
 24 22  2  0
 25 21  2  0
 26 20  2  0
 27  8  1  0
 28  7  1  0
 29 12  1  0
 30 11  1  0
 31 21  1  0
 32 22  1  0
 33 20  1  0
 34 19  1  0
 35 29  1  0
  6 10  1  0
  3  2  1  0
M  END

> <chembl_id>
CHEMBL2104694

> <chembl_pref_name>
ACEFLURANOL

$$$$

     RDKit          2D

 38 41  0  0  0  0  0  0  0  0999 V2000
    3.7475    0.4567    0.0000 O   0  0  0  0  0  0  0  0  0  0  0  0
    6.9827    1.0352    0.0000 N   0  0  0  0  0  0  0  0  0  0  0  0
    7.6404    1.5332    0.0000 N   0  0  0  0  0  0  0  0  0  0  0  0
    3.7867   -2.7731    0.0000 N   0  0  0  0  0  0  0  0  0  0  0  0
    7.2530    0.2558    0.0000 C   0  0  0  0  0  0  0  0  0  0  0  0
    6.1578    1.0190    0.0000 C   0  0  0  0  0  0  0  0  0  0  0  0
    6.5953   -0.2422    0.0000 C   0  0  0  0  0  0  0  0  0  0  0  0
    5.9184    0.2295    0.0000 C   0  0  0  0  0  0  0  0  0  0  0  0
    8.3173    1.0615    0.0000 C   0  0  0  0  0  0  0  0  0  0  0  0
    8.0779    0.2720    0.0000 C   0  0  0  0  0  0  0  0  0  0  0  0
    5.5938    1.6210    0.0000 C   0  0  0  0  0  0  0  0  0  0  0  0
    5.1150    0.0421    0.0000 C   0  0  0  0  0  0  0  0  0  0  0  0
    6.6116   -1.0671    0.0000 C   0  0  0  0  0  0  0  0  0  0  0  0
    9.0967    1.3319    0.0000 C   0  0  0  0  0  0  0  0  0  0  0  0
    4.5510    0.6442    0.0000 C   0  0  0  0  0  0  0  0  0  0  0  0
    4.7904    1.4336    0.0000 C   0  0  0  0  0  0  0  0  0  0  0  0
    7.6242    2.3580    0.0000 C   0  0  0  0  0  0  0  0  0  0  0  0
    5.9054   -1.4936    0.0000 C   0  0  0  0  0  0  0  0  0  0  0  0
    9.2523    2.1421    0.0000 C   0  0  0  0  0  0  0  0  0  0  0  0
    9.7206    0.7920    0.0000 C   0  0  0  0  0  0  0  0  0  0  0  0
    5.9216   -2.3184    0.0000 C   0  0  0  0  0  0  0  0  0  0  0  0
    5.1829   -1.0952    0.0000 C   0  0  0  0  0  0  0  0  0  0  0  0
   10.0318    2.4124    0.0000 C   0  0  0  0  0  0  0  0  0  0  0  0
   10.5000    1.0624    0.0000 C   0  0  0  0  0  0  0  0  0  0  0  0
    5.2154   -2.7449    0.0000 C   0  0  0  0  0  0  0  0  0  0  0  0
    4.4767   -1.5217    0.0000 C   0  0  0  0  0  0  0  0  0  0  0  0
    4.4929   -2.3466    0.0000 C   0  0  0  0  0  0  0  0  0  0  0  0
   10.6556    1.8726    0.0000 C   0  0  0  0  0  0  0  0  0  0  0  0
    3.8030   -3.5979    0.0000 C   0  0  0  0  0  0  0  0  0  0  0  0
    3.0643   -2.3747    0.0000 C   0  0  0  0  0  0  0  0  0  0  0  0
    0.0000   -0.4125    0.0000 S   0  0  0  0  0  0  0  0  0  0  0  0
    0.0000    1.2375    0.0000 F   0  0  0  0  0  0  0  0  0  0  0  0
   -0.8250    0.4125    0.0000 F   0  0  0  0  0  0  0  0  0  0  0  0
    0.8250    0.4125    0.0000 F   0  0  0  0  0  0  0  0  0  0  0  0
    0.0000   -1.2375    0.0000 O   0  0  0  0  0  0  0  0  0  0  0  0
   -0.8250   -0.4125    0.0000 O   0  0  0  0  0  0  0  0  0  0  0  0
    0.8250   -0.4125    0.0000 O   0  0  0  0  0  0  0  0  0  0  0  0
    0.0000    0.4125    0.0000 C   0  0  0  0  0  0  0  0  0  0  0  0
  1 15  1  0
  2  3  1  0
  2  5  1  0
  2  6  1  0
  3  9  2  0
  3 17  1  0
  4 27  1  0
  4 29  1  0
  4 30  1  0
  5  7  1  0
  5 10  2  0
  6  8  1  0
  6 11  2  0
  7  8  1  0
  7 13  2  3
  8 12  2  0
  9 10  1  0
  9 14  1  0
 11 16  1  0
 12 15  1  0
 13 18  1  0
 14 19  2  0
 14 20  1  0
 15 16  2  0
 18 21  2  0
 18 22  1  0
 19 23  1  0
 20 24  2  0
 21 25  1  0
 22 26  2  0
 23 28  2  0
 24 28  1  0
 25 27  2  0
 26 27  1  0
 31 35  1  0
 31 36  2  0
 31 37  2  0
 31 38  1  0
 32 38  1  0
 33 38  1  0
 34 38  1  0
M  CHG  2   3   1  35  -1
M  END

> <chembl_id>
CHEMBL1709564

> <chembl_pref_name>
None

$$$$

     RDKit          2D

 15 16  0  0  0  0  0  0  0  0999 V2000
    0.0971   -3.3010    0.0000 S   0  0  0  0  0  0  0  0  0  0  0  0
    0.0971   -1.6510    0.0000 N   0  0  0  0  0  0  0  0  0  0  0  0
   -0.6174   -0.4135    0.0000 C   0  0  0  0  0  0  0  0  0  0  0  0
   -1.3319   -0.8260    0.0000 C   0  0  0  0  0  0  0  0  0  0  0  0
    0.0971   -0.8260    0.0000 C   0  0  0  0  0  0  0  0  0  0  0  0
   -0.6174    0.4115    0.0000 C   0  0  0  0  0  0  0  0  0  0  0  0
   -1.3319    0.8240    0.0000 C   0  0  0  0  0  0  0  0  0  0  0  0
   -2.0463   -0.4135    0.0000 C   0  0  0  0  0  0  0  0  0  0  0  0
   -0.6174   -2.0635    0.0000 C   0  0  0  0  0  0  0  0  0  0  0  0
    0.8116   -2.0635    0.0000 C   0  0  0  0  0  0  0  0  0  0  0  0
   -2.0463    0.4115    0.0000 C   0  0  0  0  0  0  0  0  0  0  0  0
   -0.6174   -2.8885    0.0000 C   0  0  0  0  0  0  0  0  0  0  0  0
    0.8116   -2.8885    0.0000 C   0  0  0  0  0  0  0  0  0  0  0  0
   -1.3319   -1.6510    0.0000 C   0  0  0  0  0  0  0  0  0  0  0  0
   -1.3319    1.6490    0.0000 C   0  0  0  0  0  0  0  0  0  0  0  0
  1 12  1  0
  1 13  1  0
  2  5  1  0
  2  9  1  0
  2 10  1  0
  3  4  1  0
  3  5  1  0
  3  6  2  0
  4  8  2  0
  4 14  1  0
  6  7  1  0
  7 11  2  0
  7 15  1  0
  8 11  1  0
  9 12  1  0
 10 13  1  0
M  END

> <chembl_id>
CHEMBL1348694

> <chembl_pref_name>
None

$$$$

     RDKit          2D

 26 29  0  0  0  0  0  0  0  0999 V2000
   -5.9932    5.9975    0.0000 S   0  0  0  0  0  0  0  0  0  0  0  0
   -3.0943    3.4365    0.0000 O   0  0  0  0  0  0  0  0  0  0  0  0
   -4.1984    4.6627    0.0000 N   0  0  0  0  0  0  0  0  0  0  0  0
   -4.1562    2.4803    0.0000 N   0  0  0  0  0  0  0  0  0  0  0  0
   -4.6661    0.9111    0.0000 N   0  0  0  0  0  0  0  0  0  0  0  0
   -4.6833    5.3301    0.0000 C   0  0  0  0  0  0  0  0  0  0  0  0
   -3.4138    4.9176    0.0000 C   0  0  0  0  0  0  0  0  0  0  0  0
   -3.4138    5.7426    0.0000 C   0  0  0  0  0  0  0  0  0  0  0  0
   -4.1984    5.9975    0.0000 C   0  0  0  0  0  0  0  0  0  0  0  0
   -5.5083    5.3301    0.0000 C   0  0  0  0  0  0  0  0  0  0  0  0
   -4.4533    3.8780    0.0000 C   0  0  0  0  0  0  0  0  0  0  0  0
   -2.6993    4.5051    0.0000 C   0  0  0  0  0  0  0  0  0  0  0  0
   -3.9013    3.2649    0.0000 C   0  0  0  0  0  0  0  0  0  0  0  0
   -2.6993    6.1551    0.0000 C   0  0  0  0  0  0  0  0  0  0  0  0
   -5.9932    4.6627    0.0000 C   0  0  0  0  0  0  0  0  0  0  0  0
   -1.9848    4.9176    0.0000 C   0  0  0  0  0  0  0  0  0  0  0  0
   -1.9848    5.7426    0.0000 C   0  0  0  0  0  0  0  0  0  0  0  0
   -6.7779    5.7426    0.0000 C   0  0  0  0  0  0  0  0  0  0  0  0
   -6.7779    4.9176    0.0000 C   0  0  0  0  0  0  0  0  0  0  0  0
   -3.6042    1.8672    0.0000 C   0  0  0  0  0  0  0  0  0  0  0  0
   -4.9632    2.3088    0.0000 C   0  0  0  0  0  0  0  0  0  0  0  0
   -3.8591    1.0826    0.0000 C   0  0  0  0  0  0  0  0  0  0  0  0
   -5.2181    1.5242    0.0000 C   0  0  0  0  0  0  0  0  0  0  0  0
   -4.9210    0.1264    0.0000 C   0  0  0  0  0  0  0  0  0  0  0  0
   -5.7280   -0.0451    0.0000 C   0  0  0  0  0  0  0  0  0  0  0  0
   -5.9830   -0.8297    0.0000 C   0  0  0  0  0  0  0  0  0  0  0  0
  1 10  1  0
  1 18  1  0
  2 13  2  0
  3  6  1  0
  3  7  1  0
  3 11  1  0
  4 13  1  0
  4 20  1  0
  4 21  1  0
  5 22  1  0
  5 23  1  0
  5 24  1  0
  6  9  2  0
  6 10  1  0
  7  8  2  0
  7 12  1  0
  8  9  1  0
  8 14  1  0
 10 15  2  0
 11 13  1  0
 12 16  2  0
 14 17  2  0
 15 19  1  0
 16 17  1  0
 18 19  2  0
 20 22  1  0
 21 23  1  0
 24 25  1  0
 25 26  1  0
M  END

> <chembl_id>
CHEMBL1404094

> <chembl_pref_name>
None

$$$$

     RDKit          2D

 33 36  0  0  0  0  0  0  0  0999 V2000
   -2.2083  -16.4958    0.0000 C   0  0  0  0  0  0  0  0  0  0  0  0
   -2.2083  -17.3208    0.0000 C   0  0  0  0  0  0  0  0  0  0  0  0
   -1.4963  -17.7292    0.0000 N   0  0  0  0  0  0  0  0  0  0  0  0
   -0.7844  -17.3200    0.0000 C   0  0  0  0  0  0  0  0  0  0  0  0
   -0.7848  -16.4975    0.0000 C   0  0  0  0  0  0  0  0  0  0  0  0
   -1.4963  -16.0792    0.0000 C   0  0  0  0  0  0  0  0  0  0  0  0
   -1.4963  -15.2542    0.0000 O   0  0  0  0  0  0  0  0  0  0  0  0
   -0.0441  -16.1316    0.0000 C   0  0  0  0  0  0  0  0  0  0  0  0
    0.6432  -16.5895    0.0000 O   0  0  0  0  0  0  0  0  0  0  0  0
    0.0120  -15.3075    0.0000 O   0  0  0  0  0  0  0  0  0  0  0  0
    1.3826  -16.2236    0.0000 C   0  0  0  0  0  0  0  0  0  0  0  0
    2.0692  -16.6809    0.0000 C   0  0  0  0  0  0  0  0  0  0  0  0
   -1.4963  -18.5542    0.0000 C   0  0  0  0  0  0  0  0  0  0  0  0
   -2.2108  -18.9667    0.0000 C   0  0  0  0  0  0  0  0  0  0  0  0
   -0.7818  -18.9667    0.0000 O   0  0  0  0  0  0  0  0  0  0  0  0
   -2.2108  -19.7917    0.0000 N   0  0  0  0  0  0  0  0  0  0  0  0
   -2.9257  -20.2053    0.0000 C   0  0  0  0  0  0  0  0  0  0  0  0
   -2.9277  -21.0267    0.0000 C   0  0  0  0  0  0  0  0  0  0  0  0
   -2.2151  -21.4430    0.0000 O   0  0  0  0  0  0  0  0  0  0  0  0
   -1.4988  -21.0318    0.0000 C   0  0  0  0  0  0  0  0  0  0  0  0
   -1.4951  -20.2041    0.0000 C   0  0  0  0  0  0  0  0  0  0  0  0
   -0.0723  -17.7291    0.0000 C   0  0  0  0  0  0  0  0  0  0  0  0
   -0.0745  -18.5552    0.0000 C   0  0  0  0  0  0  0  0  0  0  0  0
    0.6387  -18.9684    0.0000 C   0  0  0  0  0  0  0  0  0  0  0  0
    1.3546  -18.5566    0.0000 C   0  0  0  0  0  0  0  0  0  0  0  0
    1.3528  -17.7274    0.0000 C   0  0  0  0  0  0  0  0  0  0  0  0
    0.6391  -17.3179    0.0000 C   0  0  0  0  0  0  0  0  0  0  0  0
   -2.9212  -17.7349    0.0000 C   0  0  0  0  0  0  0  0  0  0  0  0
   -3.6366  -17.3217    0.0000 C   0  0  0  0  0  0  0  0  0  0  0  0
   -4.3500  -17.7345    0.0000 C   0  0  0  0  0  0  0  0  0  0  0  0
   -4.3492  -18.5604    0.0000 C   0  0  0  0  0  0  0  0  0  0  0  0
   -3.6291  -18.9717    0.0000 C   0  0  0  0  0  0  0  0  0  0  0  0
   -2.9187  -18.5565    0.0000 C   0  0  0  0  0  0  0  0  0  0  0  0
 16 17  1  0
  5  8  1  0
  1  6  1  0
  2  3  1  0
  8  9  1  0
  8 10  2  0
 16 21  1  0
 17 18  1  0
 18 19  1  0
 19 20  1  0
 20 21  1  0
  3  4  1  0
  9 11  1  0
 22 23  2  0
  4  5  1  0
 23 24  1  0
 11 12  1  0
 24 25  2  0
  5  6  2  0
 25 26  1  0
  3 13  1  0
 26 27  2  0
 27 22  1  0
  4 22  1  0
 13 14  1  0
 28 29  2  0
  6  7  1  0
 29 30  1  0
 13 15  1  0
 30 31  2  0
  1  2  1  0
 31 32  1  0
 14 16  1  0
 32 33  2  0
 33 28  1  0
  2 28  1  0
M  END

> <chembl_id>
CHEMBL1090696

> <chembl_pref_name>
None

$$$$

     RDKit          2D

 25 28  0  0  0  0  0  0  0  0999 V2000
    0.0576    2.9211    0.0000 O   0  0  0  0  0  0  0  0  0  0  0  0
   -3.1853   -1.1907    0.0000 O   0  0  0  0  0  0  0  0  0  0  0  0
    0.0469    1.4922    0.0000 N   0  0  0  0  0  0  0  0  0  0  0  0
   -1.9546   -0.4647    0.0000 N   0  0  0  0  0  0  0  0  0  0  0  0
    1.2897    2.1974    0.0000 N   0  0  0  0  0  0  0  0  0  0  0  0
   -0.5029    1.0562    0.0000 C   0  0  0  0  0  0  0  0  0  0  0  0
   -0.0843    0.6886    0.0000 C   0  0  0  0  0  0  0  0  0  0  0  0
   -1.5488    0.2536    0.0000 C   0  0  0  0  0  0  0  0  0  0  0  0
    0.4647    2.2036    0.0000 C   0  0  0  0  0  0  0  0  0  0  0  0
   -1.4219    1.0555    0.0000 C   0  0  0  0  0  0  0  0  0  0  0  0
   -1.0443    0.6779    0.0000 C   0  0  0  0  0  0  0  0  0  0  0  0
   -0.4415    0.1031    0.0000 C   0  0  0  0  0  0  0  0  0  0  0  0
   -0.0373   -0.2983    0.0000 C   0  0  0  0  0  0  0  0  0  0  0  0
   -2.7796   -0.4724    0.0000 C   0  0  0  0  0  0  0  0  0  0  0  0
   -3.1987    0.2382    0.0000 C   0  0  0  0  0  0  0  0  0  0  0  0
   -0.8536   -0.4778    0.0000 C   0  0  0  0  0  0  0  0  0  0  0  0
   -3.9170    0.6439    0.0000 C   0  0  0  0  0  0  0  0  0  0  0  0
   -3.2064    1.0631    0.0000 C   0  0  0  0  0  0  0  0  0  0  0  0
    1.7076    2.9087    0.0000 C   0  0  0  0  0  0  0  0  0  0  0  0
    2.5325    2.9026    0.0000 C   0  0  0  0  0  0  0  0  0  0  0  0
    2.9504    3.6139    0.0000 C   0  0  0  0  0  0  0  0  0  0  0  0
    2.9397    2.1850    0.0000 C   0  0  0  0  0  0  0  0  0  0  0  0
    3.7753    3.6078    0.0000 C   0  0  0  0  0  0  0  0  0  0  0  0
    3.7646    2.1789    0.0000 C   0  0  0  0  0  0  0  0  0  0  0  0
    4.1825    2.8902    0.0000 C   0  0  0  0  0  0  0  0  0  0  0  0
  1  9  2  0
  2 14  2  0
  3  6  1  0
  3  7  1  0
  3  9  1  0
  4  8  1  0
  4 14  1  0
  5  9  1  0
  5 19  1  0
  6 10  1  0
  6 12  1  0
  7 11  1  0
  7 13  1  0
  8 10  1  0
  8 11  1  0
 12 16  1  0
 13 16  1  0
 14 15  1  0
 15 17  1  0
 15 18  1  0
 17 18  1  0
 19 20  1  0
 20 21  2  0
 20 22  1  0
 21 23  1  0
 22 24  2  0
 23 25  2  0
 24 25  1  0
M  END

> <chembl_id>
CHEMBL1340994

> <chembl_pref_name>
None

$$$$

     RDKit          2D

 55 57  0  0  0  0  0  0  0  0999 V2000
   -3.0542    2.3208    0.0000 C   0  0  0  0  0  0  0  0  0  0  0  0
   -2.3397    2.7333    0.0000 C   0  0  0  0  0  0  0  0  0  0  0  0
   -1.6252    2.3208    0.0000 C   0  0  0  0  0  0  0  0  0  0  0  0
   -3.0542    1.4958    0.0000 C   0  0  0  0  0  0  0  0  0  0  0  0
   -1.6252    1.4958    0.0000 C   0  0  0  0  0  0  0  0  0  0  0  0
   -3.7686    1.0833    0.0000 C   0  0  0  0  0  0  0  0  0  0  0  0
   -3.7686    0.2583    0.0000 C   0  0  0  0  0  0  0  0  0  0  0  0
   -3.0542   -0.1542    0.0000 C   0  0  0  0  0  0  0  0  0  0  0  0
   -3.0542   -0.9792    0.0000 O   0  0  0  0  0  0  0  0  0  0  0  0
   -2.3397   -1.3917    0.0000 C   0  0  0  0  0  0  0  0  0  0  0  0
   -1.6252   -0.9792    0.0000 C   0  0  0  0  0  0  0  0  0  0  0  0
   -1.6252   -0.1542    0.0000 C   0  0  0  0  0  0  0  0  0  0  0  0
   -0.9108    0.2583    0.0000 C   0  0  0  0  0  0  0  0  0  0  0  0
   -0.9108    1.0833    0.0000 C   0  0  0  0  0  0  0  0  0  0  0  0
   -2.3397    3.5583    0.0000 C   0  0  0  0  0  0  0  0  0  0  0  0
   -3.7686    2.7333    0.0000 O   0  0  0  0  0  0  0  0  0  0  0  0
   -4.4831    1.4958    0.0000 O   0  0  0  0  0  0  0  0  0  0  0  0
   -5.1976    1.0833    0.0000 C   0  0  0  0  0  0  0  0  0  0  0  0
   -3.7708    1.9125    0.0000 C   0  0  0  0  0  0  0  0  0  0  0  0
   -4.4875    0.6750    0.0000 O   0  0  0  0  0  0  0  0  0  0  0  0
   -4.1875   -0.4500    0.0000 C   0  0  0  0  0  0  0  0  0  0  0  0
   -3.7697   -0.5665    0.0000 C   0  0  0  0  0  0  0  0  0  0  0  0
   -3.7696   -1.3915    0.0000 C   0  0  0  0  0  0  0  0  0  0  0  0
   -2.3397   -2.2167    0.0000 O   0  0  0  0  0  0  0  0  0  0  0  0
   -0.9167   -0.5625    0.0000 O   0  0  0  0  0  0  0  0  0  0  0  0
   -0.9160   -1.3875    0.0000 C   0  0  0  0  0  0  0  0  0  0  0  0
   -0.2012   -1.7994    0.0000 N   0  0  0  0  0  0  0  0  0  0  0  0
   -1.6302   -1.8006    0.0000 O   0  0  0  0  0  0  0  0  0  0  0  0
   -2.2167   -0.3875    0.0000 C   0  0  0  0  0  0  0  0  0  0  0  0
   -0.1963   -0.1542    0.0000 C   0  0  0  0  0  0  0  0  0  0  0  0
   -0.1963    1.4958    0.0000 O   0  0  0  0  0  0  0  0  0  0  0  0
   -2.3458    1.9125    0.0000 C   0  0  0  0  0  0  0  0  0  0  0  0
   -2.0458    0.7875    0.0000 O   0  0  0  0  0  0  0  0  0  0  0  0
   -2.8708    0.7976    0.0000 C   0  0  0  0  0  0  0  0  0  0  0  0
    0.5182    1.0833    0.0000 C   0  0  0  0  0  0  0  0  0  0  0  0
    0.5146    0.2619    0.0000 O   0  0  0  0  0  0  0  0  0  0  0  0
    1.2249   -0.1505    0.0000 C   0  0  0  0  0  0  0  0  0  0  0  0
    1.9418    0.2585    0.0000 C   0  0  0  0  0  0  0  0  0  0  0  0
    1.9438    1.0845    0.0000 C   0  0  0  0  0  0  0  0  0  0  0  0
    1.2289    1.5015    0.0000 C   0  0  0  0  0  0  0  0  0  0  0  0
    2.6597    1.4945    0.0000 N   0  0  0  0  0  0  0  0  0  0  0  0
    3.3727    1.0796    0.0000 C   0  0  0  0  0  0  0  0  0  0  0  0
    2.6625    2.3195    0.0000 C   0  0  0  0  0  0  0  0  0  0  0  0
    1.2273    2.3265    0.0000 O   0  0  0  0  0  0  0  0  0  0  0  0
    1.2218   -0.9755    0.0000 C   0  0  0  0  0  0  0  0  0  0  0  0
    0.5125    1.9125    0.0000 H   0  0  0  0  0  0  0  0  0  0  0  0
   -0.2006   -2.6244    0.0000 C   0  0  0  0  0  0  0  0  0  0  0  0
    0.5142   -3.0364    0.0000 C   0  0  0  0  0  0  0  0  0  0  0  0
    0.5149   -3.8614    0.0000 C   0  0  0  0  0  0  0  0  0  0  0  0
   -0.2001   -4.2690    0.0000 C   0  0  0  0  0  0  0  0  0  0  0  0
   -0.1998   -5.0932    0.0000 C   0  0  0  0  0  0  0  0  0  0  0  0
    0.5155   -5.5060    0.0000 C   0  0  0  0  0  0  0  0  0  0  0  0
    1.2320   -5.0885    0.0000 C   0  0  0  0  0  0  0  0  0  0  0  0
    1.2282   -4.2656    0.0000 C   0  0  0  0  0  0  0  0  0  0  0  0
    1.9400   -3.8486    0.0000 F   0  0  0  0  0  0  0  0  0  0  0  0
 13 14  1  0
 26 28  2  0
 14  5  1  0
 11 29  1  1
  1  4  1  0
 13 30  1  1
  2 15  1  6
 14 31  1  6
  7  8  1  0
  5 32  1  1
  1 16  2  0
  5 33  1  0
 33 34  1  0
  6 17  1  6
 31 35  1  0
 35 36  1  0
  8  9  1  0
 17 18  1  0
  3  5  1  0
  4 19  1  1
  9 10  1  0
 35 40  1  0
 36 37  1  0
 37 38  1  0
 38 39  1  0
 39 40  1  0
  7 20  1  1
 39 41  1  1
  2  3  1  0
 41 42  1  0
  7 21  1  0
 41 43  1  0
 10 11  1  0
 40 44  1  6
  8 22  1  1
 37 45  1  1
  4  6  1  0
 35 46  1  6
 22 23  1  0
 27 47  1  0
 11 12  1  0
 47 48  1  0
 10 24  2  0
 48 49  1  0
  1  2  1  0
 49 50  2  0
 12 25  1  1
 50 51  1  0
 12 13  1  0
 51 52  2  0
 25 26  1  0
 52 53  1  0
  6  7  1  0
 53 54  2  0
 54 49  1  0
 26 27  1  0
 54 55  1  0
M  END

> <chembl_id>
CHEMBL1240644

> <chembl_pref_name>
None

$$$$

     RDKit          2D

 21 22  0  0  0  0  0  0  0  0999 V2000
    2.1224  -21.2500    0.0000 C   0  0  0  0  0  0  0  0  0  0  0  0
    2.1212  -22.0768    0.0000 C   0  0  0  0  0  0  0  0  0  0  0  0
    2.8355  -22.4895    0.0000 C   0  0  0  0  0  0  0  0  0  0  0  0
    2.8337  -20.8375    0.0000 C   0  0  0  0  0  0  0  0  0  0  0  0
    3.5487  -21.2463    0.0000 C   0  0  0  0  0  0  0  0  0  0  0  0
    3.5521  -22.0789    0.0000 C   0  0  0  0  0  0  0  0  0  0  0  0
    4.2709  -22.4900    0.0000 C   0  0  0  0  0  0  0  0  0  0  0  0
    4.9909  -22.0730    0.0000 C   0  0  0  0  0  0  0  0  0  0  0  0
    4.9875  -21.2404    0.0000 C   0  0  0  0  0  0  0  0  0  0  0  0
    4.2641  -20.8248    0.0000 C   0  0  0  0  0  0  0  0  0  0  0  0
    4.2595  -20.0003    0.0000 O   0  0  0  0  0  0  0  0  0  0  0  0
    4.2732  -23.3145    0.0000 O   0  0  0  0  0  0  0  0  0  0  0  0
    2.8341  -23.3140    0.0000 O   0  0  0  0  0  0  0  0  0  0  0  0
    5.7002  -20.8260    0.0000 O   0  0  0  0  0  0  0  0  0  0  0  0
    6.4155  -21.2360    0.0000 C   0  0  0  0  0  0  0  0  0  0  0  0
    5.7060  -22.4834    0.0000 C   0  0  0  0  0  0  0  0  0  0  0  0
    6.4189  -22.0691    0.0000 C   0  0  0  0  0  0  0  0  0  0  0  0
    7.1341  -22.4795    0.0000 C   0  0  0  0  0  0  0  0  0  0  0  0
    7.1364  -23.3040    0.0000 C   0  0  0  0  0  0  0  0  0  0  0  0
    7.9286  -22.2619    0.0000 C   0  0  0  0  0  0  0  0  0  0  0  0
    2.1194  -23.7250    0.0000 C   0  0  0  0  0  0  0  0  0  0  0  0
  9 10  1  0
  5  6  1  0
 10 11  2  0
  7 12  2  0
  2  3  1  0
  3 13  1  0
  3  6  2  0
  9 14  1  0
  1  2  2  0
 14 15  1  0
  5  4  2  0
  8 16  1  0
  4  1  1  0
 16 17  1  0
  5 10  1  0
 17 18  2  0
  6  7  1  0
 18 19  1  0
  7  8  1  0
 18 20  1  0
  8  9  2  0
 13 21  1  0
M  END

> <chembl_id>
CHEMBL1090674

> <chembl_pref_name>
None

$$$$

     RDKit          2D

 72 75  0  0  0  0  0  0  0  0999 V2000
   22.8894   -6.1943    0.0000 O   0  0  0  0  0  0  0  0  0  0  0  0
   22.4786   -5.4807    0.0000 P   0  0  0  0  0  0  0  0  0  0  0  0
   22.0676   -6.1917    0.0000 O   0  0  0  0  0  0  0  0  0  0  0  0
   24.3207   -6.1943    0.0000 O   0  0  0  0  0  0  0  0  0  0  0  0
   23.9100   -5.4807    0.0000 P   0  0  0  0  0  0  0  0  0  0  0  0
   23.4989   -6.1917    0.0000 O   0  0  0  0  0  0  0  0  0  0  0  0
   25.7480   -6.1985    0.0000 O   0  0  0  0  0  0  0  0  0  0  0  0
   25.3414   -5.4848    0.0000 P   0  0  0  0  0  0  0  0  0  0  0  0
   24.9261   -6.1958    0.0000 O   0  0  0  0  0  0  0  0  0  0  0  0
   26.0572   -5.0700    0.0000 O   0  0  0  0  0  0  0  0  0  0  0  0
   24.6260   -5.0700    0.0000 O   0  0  0  0  0  0  0  0  0  0  0  0
   23.1949   -5.0700    0.0000 O   0  0  0  0  0  0  0  0  0  0  0  0
   21.7679   -5.0700    0.0000 O   0  0  0  0  0  0  0  0  0  0  0  0
   21.0540   -5.4876    0.0000 C   0  0  0  0  0  0  0  0  0  0  0  0
   20.3367   -5.0756    0.0000 C   0  0  0  0  0  0  0  0  0  0  0  0
   20.3352   -4.2504    0.0000 C   0  0  0  0  0  0  0  0  0  0  0  0
   19.6189   -3.8426    0.0000 C   0  0  0  0  0  0  0  0  0  0  0  0
   18.9040   -4.2562    0.0000 C   0  0  0  0  0  0  0  0  0  0  0  0
   18.9099   -5.0860    0.0000 C   0  0  0  0  0  0  0  0  0  0  0  0
   19.6268   -5.4943    0.0000 C   0  0  0  0  0  0  0  0  0  0  0  0
   18.1862   -3.8492    0.0000 O   0  0  0  0  0  0  0  0  0  0  0  0
   18.1818   -3.0236    0.0000 C   0  0  0  0  0  0  0  0  0  0  0  0
   17.4640   -2.6125    0.0000 O   0  0  0  0  0  0  0  0  0  0  0  0
   21.2419   -6.1890    0.0000 C   0  0  0  0  0  0  0  0  0  0  0  0
   20.8248   -6.9033    0.0000 C   0  0  0  0  0  0  0  0  0  0  0  0
   20.0018   -6.8964    0.0000 C   0  0  0  0  0  0  0  0  0  0  0  0
   19.5888   -7.6098    0.0000 C   0  0  0  0  0  0  0  0  0  0  0  0
   19.9974   -8.3235    0.0000 C   0  0  0  0  0  0  0  0  0  0  0  0
   20.8272   -8.3235    0.0000 C   0  0  0  0  0  0  0  0  0  0  0  0
   21.2406   -7.6136    0.0000 C   0  0  0  0  0  0  0  0  0  0  0  0
   19.5853   -9.0384    0.0000 O   0  0  0  0  0  0  0  0  0  0  0  0
   19.9947   -9.7547    0.0000 C   0  0  0  0  0  0  0  0  0  0  0  0
   20.8204   -9.7562    0.0000 O   0  0  0  0  0  0  0  0  0  0  0  0
   19.5826  -10.4694    0.0000 O   0  0  0  0  0  0  0  0  0  0  0  0
   19.9920  -11.1858    0.0000 C   0  0  0  0  0  0  0  0  0  0  0  0
   20.8176  -11.1874    0.0000 C   0  0  0  0  0  0  0  0  0  0  0  0
   21.2312  -11.9037    0.0000 C   0  0  0  0  0  0  0  0  0  0  0  0
   22.0568  -11.9052    0.0000 C   0  0  0  0  0  0  0  0  0  0  0  0
   22.4663  -12.6216    0.0000 C   0  0  0  0  0  0  0  0  0  0  0  0
   23.2919  -12.6231    0.0000 C   0  0  0  0  0  0  0  0  0  0  0  0
   23.7054  -13.3394    0.0000 C   0  0  0  0  0  0  0  0  0  0  0  0
   24.5311  -13.3409    0.0000 C   0  0  0  0  0  0  0  0  0  0  0  0
   24.9432  -12.6262    0.0000 C   0  0  0  0  0  0  0  0  0  0  0  0
   25.7688  -12.6277    0.0000 C   0  0  0  0  0  0  0  0  0  0  0  0
   26.1850  -11.9129    0.0000 C   0  0  0  0  0  0  0  0  0  0  0  0
   27.0106  -11.9144    0.0000 C   0  0  0  0  0  0  0  0  0  0  0  0
   27.4227  -11.1997    0.0000 C   0  0  0  0  0  0  0  0  0  0  0  0
   28.2483  -11.2012    0.0000 C   0  0  0  0  0  0  0  0  0  0  0  0
   28.6619  -11.9175    0.0000 C   0  0  0  0  0  0  0  0  0  0  0  0
   29.4875  -11.9190    0.0000 C   0  0  0  0  0  0  0  0  0  0  0  0
   26.7693   -5.4795    0.0000 C   0  0  0  0  0  0  0  0  0  0  0  0
   27.4800   -5.0675    0.0000 C   0  0  0  0  0  0  0  0  0  0  0  0
   28.2279   -5.4019    0.0000 C   0  0  0  0  0  0  0  0  0  0  0  0
   28.7766   -4.7905    0.0000 C   0  0  0  0  0  0  0  0  0  0  0  0
   28.3646   -4.0797    0.0000 C   0  0  0  0  0  0  0  0  0  0  0  0
   27.5614   -4.2520    0.0000 O   0  0  0  0  0  0  0  0  0  0  0  0
   28.3988   -6.2054    0.0000 N   0  0  0  0  0  0  0  0  0  0  0  0
   27.7883   -6.7552    0.0000 N   0  0  0  0  0  0  0  0  0  0  0  0
   27.0715   -7.1610    0.0000 N   0  0  0  0  0  0  0  0  0  0  0  0
   28.6974   -3.3287    0.0000 N   0  0  0  0  0  0  0  0  0  0  0  0
   29.5142   -3.2413    0.0000 C   0  0  0  0  0  0  0  0  0  0  0  0
   28.2133   -2.6649    0.0000 C   0  0  0  0  0  0  0  0  0  0  0  0
   29.8470   -2.4903    0.0000 C   0  0  0  0  0  0  0  0  0  0  0  0
   30.6638   -2.4029    0.0000 C   0  0  0  0  0  0  0  0  0  0  0  0
   27.3965   -2.7523    0.0000 O   0  0  0  0  0  0  0  0  0  0  0  0
   28.5462   -1.9139    0.0000 N   0  0  0  0  0  0  0  0  0  0  0  0
   29.3629   -1.8265    0.0000 C   0  0  0  0  0  0  0  0  0  0  0  0
   29.6958   -1.0755    0.0000 O   0  0  0  0  0  0  0  0  0  0  0  0
   18.8915   -2.6098    0.0000 C   0  0  0  0  0  0  0  0  0  0  0  0
   19.6046   -3.0174    0.0000 C   0  0  0  0  0  0  0  0  0  0  0  0
   20.3143   -2.6036    0.0000 C   0  0  0  0  0  0  0  0  0  0  0  0
   21.0274   -3.0112    0.0000 C   0  0  0  0  0  0  0  0  0  0  0  0
  2  1  2  0
  3  2  1  0
  5  4  1  0
  6  5  2  0
  8  7  1  0
  9  8  2  0
 10  8  1  0
  8 11  1  0
 11  5  1  0
  5 12  1  0
 12  2  1  0
  2 13  1  0
 13 14  1  0
 14 15  1  0
 15 16  2  0
 16 17  1  0
 17 18  2  0
 18 19  1  0
 19 20  2  0
 20 15  1  0
 18 21  1  0
 21 22  1  0
 22 23  2  0
  3 24  1  0
 24 25  1  0
 25 26  2  0
 26 27  1  0
 27 28  2  0
 28 29  1  0
 29 30  2  0
 30 25  1  0
 28 31  1  0
 31 32  1  0
 32 33  2  0
 32 34  1  0
 34 35  1  0
 35 36  1  0
 36 37  1  0
 37 38  1  0
 38 39  1  0
 39 40  1  0
 40 41  1  0
 41 42  1  0
 42 43  1  0
 43 44  1  0
 44 45  1  0
 45 46  1  0
 46 47  1  0
 47 48  1  0
 48 49  1  0
 49 50  1  0
 10 51  1  0
 52 51  1  1
 52 53  1  0
 53 54  1  0
 54 55  1  0
 55 56  1  0
 56 52  1  0
 53 57  1  6
 57 58  2  0
 58 59  2  0
 55 60  1  1
 60 61  1  0
 60 62  1  0
 61 63  2  0
 63 64  1  0
 63 67  1  0
 62 65  2  0
 62 66  1  0
 66 67  1  0
 67 68  2  0
 22 69  1  0
 69 70  1  0
 70 71  1  0
 71 72  1  0
M  CHG  2  58   1  59  -1
M  END


> <chembl_id>
CHEMBL4650786

> <chembl_pref_name>
None

$$$$

     RDKit          2D

 33 36  0  0  0  0  0  0  0  0999 V2000
   17.1247  -18.2834    0.0000 C   0  0  0  0  0  0  0  0  0  0  0  0
   17.1300  -17.4617    0.0000 C   0  0  0  0  0  0  0  0  0  0  0  0
   16.4223  -17.0434    0.0000 C   0  0  0  0  0  0  0  0  0  0  0  0
   15.7044  -17.4504    0.0000 C   0  0  0  0  0  0  0  0  0  0  0  0
   15.6949  -18.2760    0.0000 C   0  0  0  0  0  0  0  0  0  0  0  0
   16.4047  -18.6922    0.0000 C   0  0  0  0  0  0  0  0  0  0  0  0
   17.8363  -18.7008    0.0000 C   0  0  0  0  0  0  0  0  0  0  0  0
   18.5536  -18.2931    0.0000 C   0  0  0  0  0  0  0  0  0  0  0  0
   19.2156  -18.8006    0.0000 N   0  0  0  0  0  0  0  0  0  0  0  0
   19.6642  -17.5324    0.0000 C   0  0  0  0  0  0  0  0  0  0  0  0
   18.8320  -17.5087    0.0000 N   0  0  0  0  0  0  0  0  0  0  0  0
   19.9002  -18.3270    0.0000 C   0  0  0  0  0  0  0  0  0  0  0  0
   20.6119  -18.7443    0.0000 C   0  0  0  0  0  0  0  0  0  0  0  0
   20.6052  -19.5692    0.0000 C   0  0  0  0  0  0  0  0  0  0  0  0
   21.3165  -19.9856    0.0000 C   0  0  0  0  0  0  0  0  0  0  0  0
   22.0343  -19.5772    0.0000 C   0  0  0  0  0  0  0  0  0  0  0  0
   22.0364  -18.7479    0.0000 C   0  0  0  0  0  0  0  0  0  0  0  0
   21.3245  -18.3351    0.0000 C   0  0  0  0  0  0  0  0  0  0  0  0
   22.7517  -18.3369    0.0000 C   0  0  0  0  0  0  0  0  0  0  0  0
   23.4653  -18.7510    0.0000 C   0  0  0  0  0  0  0  0  0  0  0  0
   24.1807  -18.3400    0.0000 C   0  0  0  0  0  0  0  0  0  0  0  0
   24.8942  -18.7541    0.0000 N   0  0  0  0  0  0  0  0  0  0  0  0
   24.1824  -17.5150    0.0000 O   0  0  0  0  0  0  0  0  0  0  0  0
   24.8925  -19.5791    0.0000 O   0  0  0  0  0  0  0  0  0  0  0  0
   20.1669  -16.8783    0.0000 C   0  0  0  0  0  0  0  0  0  0  0  0
   19.1958  -19.6254    0.0000 C   0  0  0  0  0  0  0  0  0  0  0  0
   18.4717  -20.0207    0.0000 C   0  0  0  0  0  0  0  0  0  0  0  0
   18.4520  -20.8454    0.0000 C   0  0  0  0  0  0  0  0  0  0  0  0
   17.7279  -21.2353    0.0000 C   0  0  0  0  0  0  0  0  0  0  0  0
   17.7079  -22.0593    0.0000 C   0  0  0  0  0  0  0  0  0  0  0  0
   18.4128  -22.4896    0.0000 C   0  0  0  0  0  0  0  0  0  0  0  0
   19.1394  -22.0899    0.0000 C   0  0  0  0  0  0  0  0  0  0  0  0
   19.1559  -21.2672    0.0000 C   0  0  0  0  0  0  0  0  0  0  0  0
 15 16  2  0
  7  8  1  0
 16 17  1  0
 17 18  2  0
 18 13  1  0
 11  8  2  0
 17 19  1  0
  4  5  1  0
 19 20  2  0
  2  3  1  0
 20 21  1  0
  5  6  2  0
 21 22  1  0
 10 11  1  0
 21 23  2  0
  8  9  1  0
 22 24  1  0
  9 12  1  0
 10 25  1  0
 12 10  2  0
  9 26  1  0
  6  1  1  0
 26 27  1  0
 12 13  1  0
 27 28  1  0
  1  2  2  0
 28 29  2  0
 13 14  2  0
 29 30  1  0
  1  7  1  0
 30 31  2  0
 14 15  1  0
 31 32  1  0
  3  4  2  0
 32 33  2  0
 33 28  1  0
M  END

> <chembl_id>
CHEMBL1094094

> <chembl_pref_name>
None

$$$$

     RDKit          2D

 44 49  0  0  0  0  0  0  0  0999 V2000
    7.4486   -1.0625    0.0000 C   0  0  0  0  0  0  0  0  0  0  0  0
    7.4474   -1.8898    0.0000 C   0  0  0  0  0  0  0  0  0  0  0  0
    8.1622   -2.3027    0.0000 N   0  0  0  0  0  0  0  0  0  0  0  0
    8.1604   -0.6497    0.0000 C   0  0  0  0  0  0  0  0  0  0  0  0
    8.8758   -1.0588    0.0000 C   0  0  0  0  0  0  0  0  0  0  0  0
    8.8761   -1.8899    0.0000 C   0  0  0  0  0  0  0  0  0  0  0  0
    9.6665   -2.1465    0.0000 N   0  0  0  0  0  0  0  0  0  0  0  0
   10.1549   -1.4740    0.0000 C   0  0  0  0  0  0  0  0  0  0  0  0
    9.6661   -0.8018    0.0000 C   0  0  0  0  0  0  0  0  0  0  0  0
   10.0727   -0.0850    0.0000 C   0  0  0  0  0  0  0  0  0  0  0  0
   10.8977   -0.0787    0.0000 C   0  0  0  0  0  0  0  0  0  0  0  0
   11.3855   -0.7404    0.0000 O   0  0  0  0  0  0  0  0  0  0  0  0
   11.3754    0.5944    0.0000 C   0  0  0  0  0  0  0  0  0  0  0  0
   12.1619    0.3455    0.0000 C   0  0  0  0  0  0  0  0  0  0  0  0
   12.1641   -0.4774    0.0000 C   0  0  0  0  0  0  0  0  0  0  0  0
   12.8767   -0.8851    0.0000 C   0  0  0  0  0  0  0  0  0  0  0  0
   13.5876   -0.4711    0.0000 C   0  0  0  0  0  0  0  0  0  0  0  0
   13.5814    0.3549    0.0000 C   0  0  0  0  0  0  0  0  0  0  0  0
   12.8682    0.7590    0.0000 C   0  0  0  0  0  0  0  0  0  0  0  0
   11.1130    1.3766    0.0000 O   0  0  0  0  0  0  0  0  0  0  0  0
    9.9217   -2.9310    0.0000 C   0  0  0  0  0  0  0  0  0  0  0  0
   14.2926    0.7730    0.0000 N   0  0  0  0  0  0  0  0  0  0  0  0
   15.0103    0.3661    0.0000 C   0  0  0  0  0  0  0  0  0  0  0  0
   15.7215    0.7842    0.0000 N   0  0  0  0  0  0  0  0  0  0  0  0
   15.0168   -0.4589    0.0000 O   0  0  0  0  0  0  0  0  0  0  0  0
   16.4392    0.3773    0.0000 C   0  0  0  0  0  0  0  0  0  0  0  0
    8.1541    0.1735    0.0000 N   0  0  0  0  0  0  0  0  0  0  0  0
    8.8691    0.5869    0.0000 C   0  0  0  0  0  0  0  0  0  0  0  0
    8.8687    1.4083    0.0000 C   0  0  0  0  0  0  0  0  0  0  0  0
    8.1548    1.8226    0.0000 C   0  0  0  0  0  0  0  0  0  0  0  0
    7.4397    1.4092    0.0000 C   0  0  0  0  0  0  0  0  0  0  0  0
    7.4385    0.5815    0.0000 C   0  0  0  0  0  0  0  0  0  0  0  0
   16.4412   -0.4469    0.0000 C   0  0  0  0  0  0  0  0  0  0  0  0
   17.1580   -0.8537    0.0000 N   0  0  0  0  0  0  0  0  0  0  0  0
   17.8702   -0.4356    0.0000 C   0  0  0  0  0  0  0  0  0  0  0  0
   17.8611    0.3936    0.0000 C   0  0  0  0  0  0  0  0  0  0  0  0
   17.1437    0.7967    0.0000 C   0  0  0  0  0  0  0  0  0  0  0  0
    8.1554    2.6476    0.0000 C   0  0  0  0  0  0  0  0  0  0  0  0
    8.8702    3.0595    0.0000 N   0  0  0  0  0  0  0  0  0  0  0  0
    7.4413    3.0606    0.0000 O   0  0  0  0  0  0  0  0  0  0  0  0
    9.5844    2.6464    0.0000 C   0  0  0  0  0  0  0  0  0  0  0  0
    8.8709    3.8845    0.0000 C   0  0  0  0  0  0  0  0  0  0  0  0
    9.5857    4.3036    0.0000 C   0  0  0  0  0  0  0  0  0  0  0  0
   10.2992    3.0584    0.0000 C   0  0  0  0  0  0  0  0  0  0  0  0
  4  1  1  0
  7 21  1  0
  9 10  1  0
 18 22  1  0
  5  6  1  0
 22 23  1  0
 10 11  2  0
 23 24  1  0
 11 12  1  0
 23 25  2  0
 24 26  1  0
 27 28  1  0
  2  3  1  0
 12 15  1  0
 14 13  1  0
 13 11  1  0
  3  6  2  0
  1  2  2  0
 27 32  1  0
 28 29  1  0
 29 30  1  0
 30 31  1  0
 31 32  1  0
  4 27  1  0
 14 15  2  0
 26 33  2  0
  5  4  2  0
 33 34  1  0
 15 16  1  0
 34 35  2  0
  6  7  1  0
 35 36  1  0
 16 17  2  0
 36 37  2  0
 37 26  1  0
  7  8  1  0
 30 38  1  0
 17 18  1  0
 38 39  1  0
  8  9  2  0
 38 40  2  0
 18 19  2  0
 39 41  1  0
 19 14  1  0
 39 42  1  0
  9  5  1  0
 42 43  1  0
 13 20  2  0
 41 44  1  0
M  END

> <chembl_id>
CHEMBL1091694

> <chembl_pref_name>
None

$$$$

     RDKit          2D

 36 35  0  0  0  0  0  0  0  0999 V2000
   18.1639  -13.7726    0.0000 Br  0  0  0  0  0  0  0  0  0  0  0  0
   14.4370  -14.5732    0.0000 C   0  0  0  0  0  0  0  0  0  0  0  0
   14.0285  -13.8634    0.0000 C   0  0  0  0  0  0  0  0  0  0  0  0
   13.6195  -14.5706    0.0000 C   0  0  0  0  0  0  0  0  0  0  0  0
    2.6786  -13.8923    0.0000 C   0  0  0  0  0  0  0  0  0  0  0  0
    3.3843  -13.4837    0.0000 C   0  0  0  0  0  0  0  0  0  0  0  0
    4.0942  -13.8881    0.0000 C   0  0  0  0  0  0  0  0  0  0  0  0
    4.8041  -13.4795    0.0000 C   0  0  0  0  0  0  0  0  0  0  0  0
    5.5140  -13.8840    0.0000 C   0  0  0  0  0  0  0  0  0  0  0  0
    6.2239  -13.4754    0.0000 C   0  0  0  0  0  0  0  0  0  0  0  0
    6.9337  -13.8799    0.0000 C   0  0  0  0  0  0  0  0  0  0  0  0
    7.6436  -13.4713    0.0000 C   0  0  0  0  0  0  0  0  0  0  0  0
    8.3494  -13.8757    0.0000 C   0  0  0  0  0  0  0  0  0  0  0  0
    9.0593  -13.4671    0.0000 C   0  0  0  0  0  0  0  0  0  0  0  0
    9.7692  -13.8716    0.0000 C   0  0  0  0  0  0  0  0  0  0  0  0
   10.4790  -13.4630    0.0000 C   0  0  0  0  0  0  0  0  0  0  0  0
   11.1889  -13.8675    0.0000 C   0  0  0  0  0  0  0  0  0  0  0  0
   11.8988  -13.4589    0.0000 C   0  0  0  0  0  0  0  0  0  0  0  0
   12.6111  -13.8666    0.0000 N   0  0  0  0  0  0  0  0  0  0  0  0
   11.8978  -12.6376    0.0000 O   0  0  0  0  0  0  0  0  0  0  0  0
   13.3225  -13.4572    0.0000 C   0  0  0  0  0  0  0  0  0  0  0  0
   14.7420  -13.4555    0.0000 C   0  0  0  0  0  0  0  0  0  0  0  0
   15.4543  -13.8633    0.0000 N   0  0  0  0  0  0  0  0  0  0  0  0
   16.1657  -13.4538    0.0000 C   0  0  0  0  0  0  0  0  0  0  0  0
   15.4553  -14.6846    0.0000 C   0  0  0  0  0  0  0  0  0  0  0  0
   16.1622  -14.2720    0.0000 C   0  0  0  0  0  0  0  0  0  0  0  0
    2.6795  -14.7136    0.0000 C   0  0  0  0  0  0  0  0  0  0  0  0
    1.9682  -15.1271    0.0000 C   0  0  0  0  0  0  0  0  0  0  0  0
    1.9692  -15.9485    0.0000 C   0  0  0  0  0  0  0  0  0  0  0  0
    1.2578  -16.3579    0.0000 C   0  0  0  0  0  0  0  0  0  0  0  0
   16.1647  -12.6325    0.0000 C   0  0  0  0  0  0  0  0  0  0  0  0
   16.8769  -12.2245    0.0000 C   0  0  0  0  0  0  0  0  0  0  0  0
   16.8762  -11.4039    0.0000 C   0  0  0  0  0  0  0  0  0  0  0  0
   16.1634  -10.9954    0.0000 C   0  0  0  0  0  0  0  0  0  0  0  0
   15.4497  -11.4092    0.0000 C   0  0  0  0  0  0  0  0  0  0  0  0
   15.4538  -12.2284    0.0000 C   0  0  0  0  0  0  0  0  0  0  0  0
  3  2  1  0
  4  3  1  0
  5  6  1  0
  6  7  1  0
  7  8  1  0
  8  9  1  0
  9 10  1  0
 10 11  1  0
 11 12  1  0
 12 13  1  0
 13 14  1  0
 14 15  1  0
 15 16  1  0
 16 17  1  0
 17 18  1  0
 18 19  1  0
 18 20  2  0
 19 21  1  0
 21  3  1  0
  3 22  1  0
 22 23  1  0
 23 24  1  0
 23 25  1  0
 23 26  1  0
  5 27  1  0
 27 28  1  0
 28 29  1  0
 29 30  1  0
 24 31  1  0
 31 32  2  0
 32 33  1  0
 33 34  2  0
 34 35  1  0
 35 36  2  0
 36 31  1  0
M  CHG  2   1  -1  23   1
M  END

> <chembl_id>
CHEMBL2380507

> <chembl_pref_name>
None

$$$$

     RDKit          2D

 19 19  0  0  1  0  0  0  0  0999 V2000
   -0.7111    1.5188    0.0000 S   0  0  0  0  0  0  0  0  0  0  0  0
   -0.7111    2.3438    0.0000 O   0  0  0  0  0  0  0  0  0  0  0  0
    0.1139    1.5188    0.0000 O   0  0  0  0  0  0  0  0  0  0  0  0
   -4.0111    1.5188    0.0000 O   0  0  0  0  0  0  0  0  0  0  0  0
    0.7178   -0.9562    0.0000 O   0  0  0  0  0  0  0  0  0  0  0  0
   -0.7111   -0.9562    0.0000 O   0  0  0  0  0  0  0  0  0  0  0  0
   -0.7111    0.6938    0.0000 N   0  0  0  0  0  0  0  0  0  0  0  0
   -1.5361    1.5188    0.0000 C   0  0  0  0  0  0  0  0  0  0  0  0
    0.0034    0.2813    0.0000 C   0  0  0  0  0  0  0  0  0  0  0  0
   -1.9486    0.8043    0.0000 C   0  0  0  0  0  0  0  0  0  0  0  0
   -1.9486    2.2332    0.0000 C   0  0  0  0  0  0  0  0  0  0  0  0
   -3.1861    1.5188    0.0000 C   0  0  0  0  0  0  0  0  0  0  0  0
    0.0034   -0.5437    0.0000 C   0  0  0  0  0  0  0  0  0  0  0  0
    0.7178    0.6938    0.0000 C   0  0  0  0  0  0  0  0  0  0  0  0
   -2.7736    0.8043    0.0000 C   0  0  0  0  0  0  0  0  0  0  0  0
   -2.7736    2.2332    0.0000 C   0  0  0  0  0  0  0  0  0  0  0  0
    0.7178    1.5188    0.0000 C   0  0  0  0  0  0  0  0  0  0  0  0
    1.4323    0.2813    0.0000 C   0  0  0  0  0  0  0  0  0  0  0  0
   -4.4236    0.8043    0.0000 C   0  0  0  0  0  0  0  0  0  0  0  0
  1  2  2  0
  1  3  2  0
  1  7  1  0
  1  8  1  0
  4 12  1  0
  4 19  1  0
  5 13  2  0
  6 13  1  0
  9  7  1  1
  8 10  2  0
  8 11  1  0
  9 13  1  0
  9 14  1  0
 10 15  1  0
 11 16  2  0
 12 15  2  0
 12 16  1  0
 14 17  1  0
 14 18  1  0
M  END

> <chembl_id>
CHEMBL1304069

> <chembl_pref_name>
None

$$$$

     RDKit          2D

 25 27  0  0  0  0  0  0  0  0999 V2000
   -2.3113    2.7241    0.0000 S   0  0  0  0  0  0  0  0  0  0  0  0
   -1.8988    2.0096    0.0000 O   0  0  0  0  0  0  0  0  0  0  0  0
   -2.7238    3.4386    0.0000 O   0  0  0  0  0  0  0  0  0  0  0  0
   -3.0257   -2.6384    0.0000 O   0  0  0  0  0  0  0  0  0  0  0  0
    0.5466    5.1991    0.0000 O   0  0  0  0  0  0  0  0  0  0  0  0
   -3.0257    2.3116    0.0000 N   0  0  0  0  0  0  0  0  0  0  0  0
   -3.0257   -0.9884    0.0000 N   0  0  0  0  0  0  0  0  0  0  0  0
   -1.5968    3.1366    0.0000 C   0  0  0  0  0  0  0  0  0  0  0  0
   -3.0257    1.4866    0.0000 C   0  0  0  0  0  0  0  0  0  0  0  0
   -3.0257   -0.1634    0.0000 C   0  0  0  0  0  0  0  0  0  0  0  0
   -1.5968    3.9616    0.0000 C   0  0  0  0  0  0  0  0  0  0  0  0
   -0.8823    2.7241    0.0000 C   0  0  0  0  0  0  0  0  0  0  0  0
   -0.1679    3.9616    0.0000 C   0  0  0  0  0  0  0  0  0  0  0  0
   -2.3113    1.0741    0.0000 C   0  0  0  0  0  0  0  0  0  0  0  0
   -3.7402    1.0741    0.0000 C   0  0  0  0  0  0  0  0  0  0  0  0
   -2.3113    0.2491    0.0000 C   0  0  0  0  0  0  0  0  0  0  0  0
   -3.7402    0.2491    0.0000 C   0  0  0  0  0  0  0  0  0  0  0  0
   -0.8823    4.3741    0.0000 C   0  0  0  0  0  0  0  0  0  0  0  0
   -0.1679    3.1366    0.0000 C   0  0  0  0  0  0  0  0  0  0  0  0
    0.5466    4.3741    0.0000 C   0  0  0  0  0  0  0  0  0  0  0  0
   -3.7402   -1.4009    0.0000 C   0  0  0  0  0  0  0  0  0  0  0  0
   -2.3113   -1.4009    0.0000 C   0  0  0  0  0  0  0  0  0  0  0  0
   -3.7402   -2.2259    0.0000 C   0  0  0  0  0  0  0  0  0  0  0  0
   -2.3113   -2.2259    0.0000 C   0  0  0  0  0  0  0  0  0  0  0  0
    1.2611    3.9616    0.0000 C   0  0  0  0  0  0  0  0  0  0  0  0
  1  2  2  0
  1  3  2  0
  1  6  1  0
  1  8  1  0
  4 23  1  0
  4 24  1  0
  5 20  2  0
  6  9  1  0
  7 10  1  0
  7 21  1  0
  7 22  1  0
  8 11  2  0
  8 12  1  0
  9 14  2  0
  9 15  1  0
 10 16  2  0
 10 17  1  0
 11 18  1  0
 12 19  2  0
 13 18  2  0
 13 19  1  0
 13 20  1  0
 14 16  1  0
 15 17  2  0
 20 25  1  0
 21 23  1  0
 22 24  1  0
M  END

> <chembl_id>
CHEMBL1400634

> <chembl_pref_name>
None

$$$$

     RDKit          2D

 23 26  0  0  0  0  0  0  0  0999 V2000
    2.4185   -4.0034    0.0000 Cl  0  0  0  0  0  0  0  0  0  0  0  0
    3.7775    4.0500    0.0000 Cl  0  0  0  0  0  0  0  0  0  0  0  0
    4.2229   -0.6100    0.0000 N   0  0  0  0  0  0  0  0  0  0  0  0
    3.4383    0.4699    0.0000 N   0  0  0  0  0  0  0  0  0  0  0  0
    4.2229    0.2150    0.0000 C   0  0  0  0  0  0  0  0  0  0  0  0
    3.4383   -0.8650    0.0000 C   0  0  0  0  0  0  0  0  0  0  0  0
    2.9534   -0.1975    0.0000 C   0  0  0  0  0  0  0  0  0  0  0  0
    3.1833   -1.6496    0.0000 C   0  0  0  0  0  0  0  0  0  0  0  0
    5.0075   -0.8650    0.0000 C   0  0  0  0  0  0  0  0  0  0  0  0
    5.0075    0.4699    0.0000 C   0  0  0  0  0  0  0  0  0  0  0  0
    3.1833    1.2545    0.0000 C   0  0  0  0  0  0  0  0  0  0  0  0
    5.4924   -0.1975    0.0000 C   0  0  0  0  0  0  0  0  0  0  0  0
    3.7354    1.8676    0.0000 C   0  0  0  0  0  0  0  0  0  0  0  0
    3.7354   -2.2627    0.0000 C   0  0  0  0  0  0  0  0  0  0  0  0
    2.3764   -1.8211    0.0000 C   0  0  0  0  0  0  0  0  0  0  0  0
    3.4804   -3.0473    0.0000 C   0  0  0  0  0  0  0  0  0  0  0  0
    2.1214   -2.6057    0.0000 C   0  0  0  0  0  0  0  0  0  0  0  0
    2.6735   -3.2188    0.0000 C   0  0  0  0  0  0  0  0  0  0  0  0
    3.4804    2.6523    0.0000 C   0  0  0  0  0  0  0  0  0  0  0  0
    4.5423    1.6961    0.0000 C   0  0  0  0  0  0  0  0  0  0  0  0
    4.0325    3.2653    0.0000 C   0  0  0  0  0  0  0  0  0  0  0  0
    5.0944    2.3092    0.0000 C   0  0  0  0  0  0  0  0  0  0  0  0
    4.8394    3.0938    0.0000 C   0  0  0  0  0  0  0  0  0  0  0  0
  1 18  1  0
  2 21  1  0
  3  5  1  0
  3  6  1  0
  3  9  1  0
  4  5  2  0
  4  7  1  0
  4 11  1  0
  5 10  1  0
  6  7  2  0
  6  8  1  0
  8 14  2  0
  8 15  1  0
  9 12  1  0
 10 12  1  0
 11 13  1  0
 13 19  1  0
 13 20  2  0
 14 16  1  0
 15 17  2  0
 16 18  2  0
 17 18  1  0
 19 21  2  0
 20 22  1  0
 21 23  1  0
 22 23  2  0
M  CHG  1   4   1
M  END

> <chembl_id>
CHEMBL1619894

> <chembl_pref_name>
None

$$$$

     RDKit          2D

 16 18  0  0  0  0  0  0  0  0999 V2000
    5.6000   -5.1667    0.0000 C   0  0  0  0  0  0  0  0  0  0  0  0
    6.1167   -5.4667    0.0000 C   0  0  0  0  0  0  0  0  0  0  0  0
    5.0792   -5.4667    0.0000 C   0  0  0  0  0  0  0  0  0  0  0  0
    5.0792   -6.0667    0.0000 C   0  0  0  0  0  0  0  0  0  0  0  0
    6.1167   -6.0667    0.0000 C   0  0  0  0  0  0  0  0  0  0  0  0
    5.6000   -6.3667    0.0000 C   0  0  0  0  0  0  0  0  0  0  0  0
    6.1167   -4.2667    0.0000 N   0  0  0  0  0  0  0  0  0  0  0  0
    5.6000   -4.5667    0.0000 C   0  0  0  0  0  0  0  0  0  0  0  0
    4.5625   -5.1667    0.0000 C   0  0  0  0  0  0  0  0  0  0  0  0
    6.6292   -5.1667    0.0000 C   0  0  0  0  0  0  0  0  0  0  0  0
    4.5625   -6.3667    0.0000 C   0  0  0  0  0  0  0  0  0  0  0  0
    6.6292   -6.3667    0.0000 C   0  0  0  0  0  0  0  0  0  0  0  0
    7.1542   -5.4667    0.0000 C   0  0  0  0  0  0  0  0  0  0  0  0
    4.0375   -5.4667    0.0000 C   0  0  0  0  0  0  0  0  0  0  0  0
    7.1542   -6.0667    0.0000 C   0  0  0  0  0  0  0  0  0  0  0  0
    4.0417   -6.0667    0.0000 C   0  0  0  0  0  0  0  0  0  0  0  0
  2  1  2  0
  3  1  1  0
  4  3  1  0
  5  2  1  0
  6  4  1  0
  7  8  1  0
  8  1  1  0
  9  3  2  0
 10  2  1  0
 11  4  2  0
 12  5  1  0
 13 10  2  0
 14  9  1  0
 15 13  1  0
 16 14  2  0
  5  6  2  0
 11 16  1  0
 15 12  2  0
M  END

> <chembl_id>
CHEMBL46449

> <chembl_pref_name>
None

$$$$

     RDKit          2D

 49 54  0  0  0  0  0  0  0  0999 V2000
   17.5234    1.6549    0.0000 C   0  0  0  0  0  0  0  0  0  0  0  0
   16.8541    2.1417    0.0000 N   0  0  0  0  0  0  0  0  0  0  0  0
   16.1885    1.6547    0.0000 N   0  0  0  0  0  0  0  0  0  0  0  0
   17.2666    0.8708    0.0000 C   0  0  0  0  0  0  0  0  0  0  0  0
   16.4371    0.8754    0.0000 C   0  0  0  0  0  0  0  0  0  0  0  0
   16.0207    0.1632    0.0000 C   0  0  0  0  0  0  0  0  0  0  0  0
   16.4292   -0.5580    0.0000 C   0  0  0  0  0  0  0  0  0  0  0  0
   17.2587   -0.5626    0.0000 N   0  0  0  0  0  0  0  0  0  0  0  0
   17.6797    0.1541    0.0000 C   0  0  0  0  0  0  0  0  0  0  0  0
   15.4554    2.0331    0.0000 C   0  0  0  0  0  0  0  0  0  0  0  0
   14.7612    1.5875    0.0000 C   0  0  0  0  0  0  0  0  0  0  0  0
   14.0281    1.9659    0.0000 C   0  0  0  0  0  0  0  0  0  0  0  0
   13.3338    1.5202    0.0000 N   0  0  0  0  0  0  0  0  0  0  0  0
   12.5955    1.8991    0.0000 C   0  0  0  0  0  0  0  0  0  0  0  0
   11.9032    1.4570    0.0000 C   0  0  0  0  0  0  0  0  0  0  0  0
   11.9377    0.6324    0.0000 C   0  0  0  0  0  0  0  0  0  0  0  0
   12.6708    0.2518    0.0000 C   0  0  0  0  0  0  0  0  0  0  0  0
   13.3692    0.6958    0.0000 C   0  0  0  0  0  0  0  0  0  0  0  0
   17.6666   -1.2798    0.0000 S   0  0  0  0  0  0  0  0  0  0  0  0
   17.2494   -1.9915    0.0000 C   0  0  0  0  0  0  0  0  0  0  0  0
   18.2458   -0.6917    0.0000 O   0  0  0  0  0  0  0  0  0  0  0  0
   18.2458   -1.8625    0.0000 O   0  0  0  0  0  0  0  0  0  0  0  0
   18.2371    2.0641    0.0000 C   0  0  0  0  0  0  0  0  0  0  0  0
   18.9493    1.6453    0.0000 C   0  0  0  0  0  0  0  0  0  0  0  0
   19.6658    2.0526    0.0000 C   0  0  0  0  0  0  0  0  0  0  0  0
   19.6715    2.8785    0.0000 C   0  0  0  0  0  0  0  0  0  0  0  0
   18.9547    3.2954    0.0000 C   0  0  0  0  0  0  0  0  0  0  0  0
   18.2410    2.8857    0.0000 C   0  0  0  0  0  0  0  0  0  0  0  0
   20.3880    3.2874    0.0000 C   0  0  0  0  0  0  0  0  0  0  0  0
   21.1004    2.8713    0.0000 F   0  0  0  0  0  0  0  0  0  0  0  0
   20.3922    4.1126    0.0000 F   0  0  0  0  0  0  0  0  0  0  0  0
   21.1000    3.7042    0.0000 F   0  0  0  0  0  0  0  0  0  0  0  0
   20.3775    1.6353    0.0000 S   0  0  0  0  0  0  0  0  0  0  0  0
   21.0948    2.0429    0.0000 C   0  0  0  0  0  0  0  0  0  0  0  0
   21.8064    1.6255    0.0000 C   0  0  0  0  0  0  0  0  0  0  0  0
   22.5237    2.0331    0.0000 N   0  0  0  0  0  0  0  0  0  0  0  0
   21.8008    0.8005    0.0000 O   0  0  0  0  0  0  0  0  0  0  0  0
   14.8000    0.7634    0.0000 O   0  0  0  0  0  0  0  0  0  0  0  0
   11.2446    0.1896    0.0000 C   0  0  0  0  0  0  0  0  0  0  0  0
   10.5126    0.5725    0.0000 N   0  0  0  0  0  0  0  0  0  0  0  0
    9.8171    0.1302    0.0000 C   0  0  0  0  0  0  0  0  0  0  0  0
    9.8524   -0.6949    0.0000 C   0  0  0  0  0  0  0  0  0  0  0  0
   10.5891   -1.0757    0.0000 C   0  0  0  0  0  0  0  0  0  0  0  0
   11.2815   -0.6312    0.0000 C   0  0  0  0  0  0  0  0  0  0  0  0
   23.2703    1.6898    0.0000 C   0  0  0  0  0  0  0  0  0  0  0  0
   23.8266    2.2991    0.0000 C   0  0  0  0  0  0  0  0  0  0  0  0
   23.4189    3.0164    0.0000 C   0  0  0  0  0  0  0  0  0  0  0  0
   22.6108    2.8503    0.0000 C   0  0  0  0  0  0  0  0  0  0  0  0
   23.7595    3.7678    0.0000 O   0  0  0  0  0  0  0  0  0  0  0  0
 23 24  2  0
  1  2  2  0
 24 25  1  0
 11 12  1  0
 25 26  2  0
  2  3  1  0
 26 27  1  0
 12 13  1  0
 27 28  2  0
 28 23  1  0
  1 23  1  0
 13 14  1  0
 26 29  1  0
  3  5  1  0
 29 30  1  0
  4  5  2  0
 29 31  1  0
  4  9  1  0
 29 32  1  0
  5  6  1  0
 25 33  1  0
  6  7  1  0
 33 34  1  0
 13 18  1  0
 34 35  1  0
 14 15  1  0
 35 36  1  0
 15 16  1  0
 35 37  2  0
 16 17  1  0
 11 38  1  0
 17 18  1  0
  7  8  1  0
 39 40  2  0
  8 19  1  0
 40 41  1  0
  8  9  1  0
 41 42  2  0
 19 20  1  0
 42 43  1  0
 43 44  2  0
 44 39  1  0
 16 39  1  0
 36 45  1  0
 19 21  2  0
  3 10  1  0
 19 22  2  0
  4  1  1  0
 45 46  1  0
 46 47  1  0
 47 48  1  0
 48 36  1  0
 10 11  1  0
 47 49  1  6
M  END

> <chembl_id>
CHEMBL1090994

> <chembl_pref_name>
None

$$$$

     RDKit          2D

 17 19  0  0  0  0  0  0  0  0999 V2000
    0.2409   -3.4780    0.0000 O   0  0  0  0  0  0  0  0  0  0  0  0
    1.3786   -3.8595    0.0000 C   0  0  0  0  0  0  0  0  0  0  0  0
    1.8372   -5.2877    0.0000 C   0  0  0  0  0  0  0  0  0  0  0  0
    3.3372   -5.2929    0.0000 C   0  0  0  0  0  0  0  0  0  0  0  0
    3.8056   -3.8679    0.0000 C   0  0  0  0  0  0  0  0  0  0  0  0
    4.9460   -3.4943    0.0000 O   0  0  0  0  0  0  0  0  0  0  0  0
    2.5951   -3.0039    0.0000 N   0  0  0  0  0  0  0  0  0  0  0  0
    2.5973   -1.5031    0.0000 C   0  0  0  0  0  0  0  0  0  0  0  0
    1.2990   -0.7500    0.0000 C   0  0  0  0  0  0  0  0  0  0  0  0
    1.2990    0.7500    0.0000 C   0  0  0  0  0  0  0  0  0  0  0  0
    0.0000    1.5000    0.0000 C   0  0  0  0  0  0  0  0  0  0  0  0
   -1.2990    0.7500    0.0000 C   0  0  0  0  0  0  0  0  0  0  0  0
   -2.7248    1.2135    0.0000 O   0  0  0  0  0  0  0  0  0  0  0  0
   -3.6065    0.0000    0.0000 C   0  0  0  0  0  0  0  0  0  0  0  0
   -2.7248   -1.2135    0.0000 O   0  0  0  0  0  0  0  0  0  0  0  0
   -1.2990   -0.7500    0.0000 C   0  0  0  0  0  0  0  0  0  0  0  0
    0.0000   -1.5000    0.0000 C   0  0  0  0  0  0  0  0  0  0  0  0
  1  2  2  0
  2  3  1  0
  3  4  2  0
  4  5  1  0
  5  6  2  0
  5  7  1  0
  7  2  1  0
  7  8  1  0
  8  9  1  0
  9 10  2  0
 10 11  1  0
 11 12  2  0
 12 13  1  0
 13 14  1  0
 14 15  1  0
 15 16  1  0
 16 12  1  0
 16 17  2  0
 17  9  1  0
M  END

> <chembl_id>
CHEMBL4517088

> <chembl_pref_name>
None

$$$$

     RDKit          2D

 20 21  0  0  0  0  0  0  0  0999 V2000
    2.1419   -3.2418    0.0000 O   0  0  0  0  0  0  0  0  0  0  0  0
   -1.4305   -2.0043    0.0000 O   0  0  0  0  0  0  0  0  0  0  0  0
    1.4274   -2.0043    0.0000 O   0  0  0  0  0  0  0  0  0  0  0  0
   -0.7160    1.7082    0.0000 O   0  0  0  0  0  0  0  0  0  0  0  0
   -0.0015   -2.0043    0.0000 N   0  0  0  0  0  0  0  0  0  0  0  0
   -0.7160    0.8832    0.0000 N   0  0  0  0  0  0  0  0  0  0  0  0
   -0.0015   -2.8293    0.0000 C   0  0  0  0  0  0  0  0  0  0  0  0
    0.7129   -3.2418    0.0000 C   0  0  0  0  0  0  0  0  0  0  0  0
   -0.7160   -1.5918    0.0000 C   0  0  0  0  0  0  0  0  0  0  0  0
   -0.7160   -0.7668    0.0000 C   0  0  0  0  0  0  0  0  0  0  0  0
    1.4274   -2.8293    0.0000 C   0  0  0  0  0  0  0  0  0  0  0  0
   -0.7160   -3.2418    0.0000 C   0  0  0  0  0  0  0  0  0  0  0  0
    0.7129   -4.0668    0.0000 C   0  0  0  0  0  0  0  0  0  0  0  0
   -0.0015   -0.3543    0.0000 C   0  0  0  0  0  0  0  0  0  0  0  0
   -1.4305   -0.3543    0.0000 C   0  0  0  0  0  0  0  0  0  0  0  0
   -0.7160   -4.0668    0.0000 C   0  0  0  0  0  0  0  0  0  0  0  0
   -0.0015   -4.4793    0.0000 C   0  0  0  0  0  0  0  0  0  0  0  0
   -0.0015    0.4707    0.0000 C   0  0  0  0  0  0  0  0  0  0  0  0
   -1.4305    0.4707    0.0000 C   0  0  0  0  0  0  0  0  0  0  0  0
    2.8563   -2.8293    0.0000 C   0  0  0  0  0  0  0  0  0  0  0  0
  1 11  1  0
  1 20  1  0
  2  9  2  0
  3 11  2  0
  4  6  1  0
  5  7  1  0
  5  9  1  0
  6 18  2  0
  6 19  1  0
  7  8  1  0
  7 12  2  0
  8 11  1  0
  8 13  2  0
  9 10  1  0
 10 14  2  0
 10 15  1  0
 12 16  1  0
 13 17  1  0
 14 18  1  0
 15 19  2  0
 16 17  2  0
M  CHG  2   4  -1   6   1
M  END

> <chembl_id>
CHEMBL1340094

> <chembl_pref_name>
None

$$$$

     RDKit          2D

 16 16  0  0  0  0  0  0  0  0999 V2000
    7.7250   -9.4667    0.0000 N   0  0  0  0  0  0  0  0  0  0  0  0
    8.4395   -9.0542    0.0000 C   0  0  0  0  0  0  0  0  0  0  0  0
    9.1539   -9.4667    0.0000 P   0  0  0  0  0  0  0  0  0  0  0  0
    8.4395   -8.2292    0.0000 C   0  0  0  0  0  0  0  0  0  0  0  0
    9.1539  -10.2917    0.0000 O   0  0  0  0  0  0  0  0  0  0  0  0
    9.8684   -9.0542    0.0000 O   0  0  0  0  0  0  0  0  0  0  0  0
    8.5706  -10.0500    0.0000 O   0  0  0  0  0  0  0  0  0  0  0  0
   10.5829   -9.4667    0.0000 C   0  0  0  0  0  0  0  0  0  0  0  0
   10.5806  -10.2927    0.0000 C   0  0  0  0  0  0  0  0  0  0  0  0
   11.2942  -10.7052    0.0000 C   0  0  0  0  0  0  0  0  0  0  0  0
   12.0096  -10.2926    0.0000 C   0  0  0  0  0  0  0  0  0  0  0  0
   12.0070   -9.4633    0.0000 C   0  0  0  0  0  0  0  0  0  0  0  0
   11.2928   -9.0547    0.0000 C   0  0  0  0  0  0  0  0  0  0  0  0
   11.2902   -8.2297    0.0000 C   0  0  0  0  0  0  0  0  0  0  0  0
   12.7200   -9.0483    0.0000 C   0  0  0  0  0  0  0  0  0  0  0  0
   11.2938  -11.5302    0.0000 C   0  0  0  0  0  0  0  0  0  0  0  0
  8  9  2  0
  3  5  1  0
  9 10  1  0
  2  3  1  0
 10 11  2  0
  3  6  1  0
 11 12  1  0
  1  2  1  0
 12 13  2  0
 13  8  1  0
  3  7  2  0
 13 14  1  0
  2  4  1  0
 12 15  1  0
  6  8  1  0
 10 16  1  0
M  END

> <chembl_id>
CHEMBL1090690

> <chembl_pref_name>
None

$$$$

     RDKit          2D

 32 36  0  0  0  0  0  0  0  0999 V2000
    4.7042   -3.0417    0.0000 C   0  0  0  0  0  0  0  0  0  0  0  0
    5.4167   -2.6292    0.0000 C   0  0  0  0  0  0  0  0  0  0  0  0
    5.4125    0.6708    0.0000 C   0  0  0  0  0  0  0  0  0  0  0  0
    5.4125   -0.1542    0.0000 N   0  0  0  0  0  0  0  0  0  0  0  0
    5.4167   -1.8042    0.0000 N   0  0  0  0  0  0  0  0  0  0  0  0
    4.7042   -3.8667    0.0000 C   0  0  0  0  0  0  0  0  0  0  0  0
    3.9917   -2.6292    0.0000 C   0  0  0  0  0  0  0  0  0  0  0  0
    6.1292   -3.0375    0.0000 N   0  0  0  0  0  0  0  0  0  0  0  0
    6.1250    1.0833    0.0000 N   0  0  0  0  0  0  0  0  0  0  0  0
    3.9917   -4.2875    0.0000 C   0  0  0  0  0  0  0  0  0  0  0  0
    8.2625    0.6833    0.0000 C   0  0  0  0  0  0  0  0  0  0  0  0
    3.2792   -3.0417    0.0000 C   0  0  0  0  0  0  0  0  0  0  0  0
    3.2792   -3.8750    0.0000 C   0  0  0  0  0  0  0  0  0  0  0  0
    5.4250   -4.2792    0.0000 N   0  0  0  0  0  0  0  0  0  0  0  0
    7.5500    1.0875    0.0000 C   0  0  0  0  0  0  0  0  0  0  0  0
    4.6917    1.0833    0.0000 S   0  0  0  0  0  0  0  0  0  0  0  0
    8.2667   -0.1500    0.0000 C   0  0  0  0  0  0  0  0  0  0  0  0
    6.1375   -3.8667    0.0000 C   0  0  0  0  0  0  0  0  0  0  0  0
    9.0542    0.9458    0.0000 O   0  0  0  0  0  0  0  0  0  0  0  0
    6.8417    0.6708    0.0000 C   0  0  0  0  0  0  0  0  0  0  0  0
    9.0542   -0.4042    0.0000 O   0  0  0  0  0  0  0  0  0  0  0  0
    4.7000   -0.5750    0.0000 C   0  0  0  0  0  0  0  0  0  0  0  0
    6.1292   -0.5667    0.0000 C   0  0  0  0  0  0  0  0  0  0  0  0
    4.7000   -1.4000    0.0000 C   0  0  0  0  0  0  0  0  0  0  0  0
    6.1292   -1.3917    0.0000 C   0  0  0  0  0  0  0  0  0  0  0  0
    9.5417    0.2708    0.0000 C   0  0  0  0  0  0  0  0  0  0  0  0
    7.5542   -0.5625    0.0000 C   0  0  0  0  0  0  0  0  0  0  0  0
    6.8375   -0.1542    0.0000 C   0  0  0  0  0  0  0  0  0  0  0  0
    2.5667   -2.6375    0.0000 O   0  0  0  0  0  0  0  0  0  0  0  0
    2.5625   -4.2875    0.0000 O   0  0  0  0  0  0  0  0  0  0  0  0
    1.8500   -3.8750    0.0000 C   0  0  0  0  0  0  0  0  0  0  0  0
    2.5667   -1.8125    0.0000 C   0  0  0  0  0  0  0  0  0  0  0  0
  2  1  1  0
  3  4  1  0
  4 23  1  0
  5  2  1  0
  6  1  1  0
  7  1  2  0
  8  2  2  0
  9  3  2  0
 10  6  2  0
 11 15  2  0
 12  7  1  0
 13 12  2  0
 14  6  1  0
 15 20  1  0
 16  3  1  0
 17 27  2  0
 18 14  2  0
 19 11  1  0
 20  9  1  0
 21 17  1  0
 22 24  1  0
 23 25  1  0
 24  5  1  0
 25  5  1  0
 26 19  1  0
 27 28  1  0
 28 20  2  0
 29 12  1  0
 30 13  1  0
 31 30  1  0
 32 29  1  0
 10 13  1  0
 18  8  1  0
 22  4  1  0
 11 17  1  0
 21 26  1  0
M  END

> <chembl_id>
CHEMBL104094

> <chembl_pref_name>
None

$$$$

     RDKit          2D

 57 60  0  0  0  0  0  0  0  0999 V2000
    5.7750   -2.4390    0.0000 C   0  0  0  0  0  0  0  0  0  0  0  0
    5.3625   -1.7246    0.0000 C   0  0  0  0  0  0  0  0  0  0  0  0
    5.7750   -1.0101    0.0000 C   0  0  0  0  0  0  0  0  0  0  0  0
    5.3625   -3.1535    0.0000 O   0  0  0  0  0  0  0  0  0  0  0  0
    6.6000   -2.4390    0.0000 O   0  0  0  0  0  0  0  0  0  0  0  0
    6.6000   -1.0101    0.0000 C   0  0  0  0  0  0  0  0  0  0  0  0
    7.0125   -0.2956    0.0000 C   0  0  0  0  0  0  0  0  0  0  0  0
    7.8375   -0.2956    0.0000 C   0  0  0  0  0  0  0  0  0  0  0  0
    8.2500   -1.0101    0.0000 C   0  0  0  0  0  0  0  0  0  0  0  0
    7.8375   -1.7246    0.0000 C   0  0  0  0  0  0  0  0  0  0  0  0
    7.0125   -1.7246    0.0000 C   0  0  0  0  0  0  0  0  0  0  0  0
    4.1250   -1.0101    0.0000 C   0  0  0  0  0  0  0  0  0  0  0  0
    4.5375   -0.2956    0.0000 C   0  0  0  0  0  0  0  0  0  0  0  0
    5.3625   -0.2956    0.0000 C   0  0  0  0  0  0  0  0  0  0  0  0
    3.3000   -1.0101    0.0000 O   0  0  0  0  0  0  0  0  0  0  0  0
    4.5375   -1.7246    0.0000 N   0  0  0  0  0  0  0  0  0  0  0  0
    5.7750    0.4189    0.0000 C   0  0  0  0  0  0  0  0  0  0  0  0
    6.6000    0.4189    0.0000 C   0  0  0  0  0  0  0  0  0  0  0  0
    7.0125    1.1333    0.0000 C   0  0  0  0  0  0  0  0  0  0  0  0
    6.6000    1.8478    0.0000 C   0  0  0  0  0  0  0  0  0  0  0  0
    5.7750    1.8478    0.0000 C   0  0  0  0  0  0  0  0  0  0  0  0
    5.3625    1.1333    0.0000 C   0  0  0  0  0  0  0  0  0  0  0  0
    7.0125    2.5623    0.0000 O   0  0  0  0  0  0  0  0  0  0  0  0
    3.3000    0.4189    0.0000 C   0  0  0  0  0  0  0  0  0  0  0  0
    2.8875    1.1333    0.0000 C   0  0  0  0  0  0  0  0  0  0  0  0
    3.3000    1.8478    0.0000 C   0  0  0  0  0  0  0  0  0  0  0  0
    2.8875   -0.2956    0.0000 O   0  0  0  0  0  0  0  0  0  0  0  0
    4.1250    0.4189    0.0000 N   0  0  0  0  0  0  0  0  0  0  0  0
    1.6500    0.4189    0.0000 C   0  0  0  0  0  0  0  0  0  0  0  0
    0.8250    0.4189    0.0000 C   0  0  0  0  0  0  0  0  0  0  0  0
    0.4125   -0.2956    0.0000 C   0  0  0  0  0  0  0  0  0  0  0  0
   -0.4125   -0.2956    0.0000 C   0  0  0  0  0  0  0  0  0  0  0  0
   -0.8250    0.4189    0.0000 C   0  0  0  0  0  0  0  0  0  0  0  0
   -0.4125    1.1333    0.0000 C   0  0  0  0  0  0  0  0  0  0  0  0
    0.4125    1.1333    0.0000 C   0  0  0  0  0  0  0  0  0  0  0  0
    2.0625   -0.2956    0.0000 O   0  0  0  0  0  0  0  0  0  0  0  0
    2.0625    1.1333    0.0000 N   0  0  0  0  0  0  0  0  0  0  0  0
   -1.6500    0.4189    0.0000 O   0  0  0  0  0  0  0  0  0  0  0  0
   -2.0625   -0.2956    0.0000 C   0  0  0  0  0  0  0  0  0  0  0  0
   -2.8875   -0.2956    0.0000 C   0  0  0  0  0  0  0  0  0  0  0  0
   -3.3000   -1.0101    0.0000 C   0  0  0  0  0  0  0  0  0  0  0  0
   -4.1250   -1.0101    0.0000 C   0  0  0  0  0  0  0  0  0  0  0  0
   -4.5375   -1.7246    0.0000 C   0  0  0  0  0  0  0  0  0  0  0  0
   -5.3625   -1.7246    0.0000 C   0  0  0  0  0  0  0  0  0  0  0  0
   -5.7750   -2.4390    0.0000 C   0  0  0  0  0  0  0  0  0  0  0  0
   -6.6000   -2.4390    0.0000 C   0  0  0  0  0  0  0  0  0  0  0  0
   -7.0125   -3.1535    0.0000 C   0  0  0  0  0  0  0  0  0  0  0  0
   -7.8375   -3.1535    0.0000 C   0  0  0  0  0  0  0  0  0  0  0  0
   -8.2500   -3.8680    0.0000 C   0  0  0  0  0  0  0  0  0  0  0  0
    1.8955    3.4555    0.0000 C   0  0  0  0  0  0  0  0  0  0  0  0
    2.0670    2.6485    0.0000 N   0  0  0  0  0  0  0  0  0  0  0  0
    2.8875    2.5623    0.0000 C   0  0  0  0  0  0  0  0  0  0  0  0
    3.2231    3.3159    0.0000 C   0  0  0  0  0  0  0  0  0  0  0  0
    2.6100    3.8680    0.0000 N   0  0  0  0  0  0  0  0  0  0  0  0
    7.0125   -3.1535    0.0000 C   0  0  0  0  0  0  0  0  0  0  0  0
    7.8375   -3.1535    0.0000 C   0  0  0  0  0  0  0  0  0  0  0  0
    8.2500   -3.8680    0.0000 N   0  0  0  0  0  0  0  0  0  0  0  0
  1  2  1  0
  2  3  1  0
  1  4  2  0
  1  5  1  0
  6  7  1  0
  7  8  2  0
  8  9  1  0
  9 10  2  0
 10 11  1  0
  6 11  2  0
  3  6  1  0
 12 13  1  0
 13 14  1  0
 12 15  2  0
 12 16  1  0
 17 18  1  0
 18 19  2  0
 19 20  1  0
 20 21  2  0
 21 22  1  0
 17 22  2  0
 20 23  1  0
 14 17  1  0
 24 25  1  0
 25 26  1  0
 24 27  2  0
 24 28  1  0
 29 30  1  0
 30 31  1  0
 31 32  2  0
 32 33  1  0
 33 34  2  0
 34 35  1  0
 30 35  2  0
 29 36  2  0
 29 37  1  0
 39 40  1  0
 40 41  1  0
 41 42  1  0
 42 43  1  0
 43 44  1  0
 44 45  1  0
 45 46  1  0
 46 47  1  0
 47 48  1  0
 48 49  1  0
 38 39  1  0
 33 38  1  0
 25 37  1  1
 50 51  2  0
 51 52  1  0
 52 53  2  0
 53 54  1  0
 50 54  1  0
 26 52  1  0
 13 28  1  1
  2 16  1  1
 55 56  1  0
 56 57  1  0
  5 55  1  0
M  END

> <chembl_id>
CHEMBL1076094

> <chembl_pref_name>
None

$$$$

     RDKit          2D

 34 37  0  0  0  0  0  0  0  0999 V2000
    3.5504   -2.0868    0.0000 S   0  0  0  0  0  0  0  0  0  0  0  0
    3.9629   -2.8012    0.0000 O   0  0  0  0  0  0  0  0  0  0  0  0
    3.1379   -1.3723    0.0000 O   0  0  0  0  0  0  0  0  0  0  0  0
    4.2648    0.8007    0.0000 O   0  0  0  0  0  0  0  0  0  0  0  0
    2.8359   -2.4993    0.0000 N   0  0  0  0  0  0  0  0  0  0  0  0
    5.6938    0.8007    0.0000 N   0  0  0  0  0  0  0  0  0  0  0  0
    5.6938    3.2757    0.0000 N   0  0  0  0  0  0  0  0  0  0  0  0
    4.2648   -1.6743    0.0000 C   0  0  0  0  0  0  0  0  0  0  0  0
    4.9793   -0.4368    0.0000 C   0  0  0  0  0  0  0  0  0  0  0  0
    4.2648   -0.8493    0.0000 C   0  0  0  0  0  0  0  0  0  0  0  0
    2.8359   -3.3243    0.0000 C   0  0  0  0  0  0  0  0  0  0  0  0
    4.9793   -2.0868    0.0000 C   0  0  0  0  0  0  0  0  0  0  0  0
    4.9793    0.3882    0.0000 C   0  0  0  0  0  0  0  0  0  0  0  0
    3.5504   -3.7368    0.0000 C   0  0  0  0  0  0  0  0  0  0  0  0
    5.6938   -0.8493    0.0000 C   0  0  0  0  0  0  0  0  0  0  0  0
    5.6938   -1.6743    0.0000 C   0  0  0  0  0  0  0  0  0  0  0  0
    2.1214   -3.7368    0.0000 C   0  0  0  0  0  0  0  0  0  0  0  0
    5.6938    1.6257    0.0000 C   0  0  0  0  0  0  0  0  0  0  0  0
    3.5504   -4.5618    0.0000 C   0  0  0  0  0  0  0  0  0  0  0  0
    2.8359   -4.9743    0.0000 C   0  0  0  0  0  0  0  0  0  0  0  0
    2.1214   -4.5618    0.0000 C   0  0  0  0  0  0  0  0  0  0  0  0
    6.4083    2.0382    0.0000 C   0  0  0  0  0  0  0  0  0  0  0  0
    4.9793    2.0382    0.0000 C   0  0  0  0  0  0  0  0  0  0  0  0
    4.2648   -3.3243    0.0000 C   0  0  0  0  0  0  0  0  0  0  0  0
    6.4083    2.8632    0.0000 C   0  0  0  0  0  0  0  0  0  0  0  0
    4.9793    2.8632    0.0000 C   0  0  0  0  0  0  0  0  0  0  0  0
    5.6938    4.1007    0.0000 C   0  0  0  0  0  0  0  0  0  0  0  0
    6.4083    4.5132    0.0000 C   0  0  0  0  0  0  0  0  0  0  0  0
    2.8359   -5.7993    0.0000 C   0  0  0  0  0  0  0  0  0  0  0  0
    6.4083    5.3382    0.0000 C   0  0  0  0  0  0  0  0  0  0  0  0
    7.1227    4.1007    0.0000 C   0  0  0  0  0  0  0  0  0  0  0  0
    7.1227    5.7507    0.0000 C   0  0  0  0  0  0  0  0  0  0  0  0
    7.8372    4.5132    0.0000 C   0  0  0  0  0  0  0  0  0  0  0  0
    7.8372    5.3382    0.0000 C   0  0  0  0  0  0  0  0  0  0  0  0
  1  2  2  0
  1  3  2  0
  1  5  1  0
  1  8  1  0
  4 13  2  0
  5 11  1  0
  6 13  1  0
  6 18  1  0
  7 25  1  0
  7 26  1  0
  7 27  1  0
  8 10  1  0
  8 12  2  0
  9 10  2  0
  9 13  1  0
  9 15  1  0
 11 14  1  0
 11 17  2  0
 12 16  1  0
 14 19  2  0
 14 24  1  0
 15 16  2  0
 17 21  1  0
 18 22  1  0
 18 23  1  0
 19 20  1  0
 20 21  2  0
 20 29  1  0
 22 25  1  0
 23 26  1  0
 27 28  1  0
 28 30  2  0
 28 31  1  0
 30 32  1  0
 31 33  2  0
 32 34  2  0
 33 34  1  0
M  END

> <chembl_id>
CHEMBL1740694

> <chembl_pref_name>
None

$$$$

     RDKit          2D

 29 32  0  0  0  0  0  0  0  0999 V2000
   -5.4875   -9.4708    0.0000 C   0  0  0  0  0  0  0  0  0  0  0  0
   -5.4875  -10.2958    0.0000 C   0  0  0  0  0  0  0  0  0  0  0  0
   -4.7755  -10.7042    0.0000 C   0  0  0  0  0  0  0  0  0  0  0  0
   -4.0635  -10.2958    0.0000 N   0  0  0  0  0  0  0  0  0  0  0  0
   -4.0635   -9.4708    0.0000 N   0  0  0  0  0  0  0  0  0  0  0  0
   -4.7755   -9.0542    0.0000 C   0  0  0  0  0  0  0  0  0  0  0  0
   -4.7750   -8.2300    0.0000 C   0  0  0  0  0  0  0  0  0  0  0  0
   -4.0589   -7.8181    0.0000 C   0  0  0  0  0  0  0  0  0  0  0  0
   -4.0586   -6.9939    0.0000 C   0  0  0  0  0  0  0  0  0  0  0  0
   -4.7736   -6.5806    0.0000 C   0  0  0  0  0  0  0  0  0  0  0  0
   -5.4904   -6.9975    0.0000 C   0  0  0  0  0  0  0  0  0  0  0  0
   -5.4873   -7.8204    0.0000 C   0  0  0  0  0  0  0  0  0  0  0  0
   -4.7747   -5.7556    0.0000 O   0  0  0  0  0  0  0  0  0  0  0  0
   -4.0608   -5.3421    0.0000 C   0  0  0  0  0  0  0  0  0  0  0  0
   -3.3457   -5.7537    0.0000 C   0  0  0  0  0  0  0  0  0  0  0  0
   -3.3446   -6.5787    0.0000 O   0  0  0  0  0  0  0  0  0  0  0  0
   -4.7755  -11.5292    0.0000 O   0  0  0  0  0  0  0  0  0  0  0  0
   -3.3514  -10.7083    0.0000 C   0  0  0  0  0  0  0  0  0  0  0  0
   -3.3540  -11.5344    0.0000 C   0  0  0  0  0  0  0  0  0  0  0  0
   -2.6409  -11.9479    0.0000 C   0  0  0  0  0  0  0  0  0  0  0  0
   -1.9249  -11.5363    0.0000 C   0  0  0  0  0  0  0  0  0  0  0  0
   -1.9263  -10.7071    0.0000 C   0  0  0  0  0  0  0  0  0  0  0  0
   -2.6400  -10.2974    0.0000 C   0  0  0  0  0  0  0  0  0  0  0  0
   -2.6333   -5.3333    0.0000 N   0  0  0  0  0  0  0  0  0  0  0  0
   -1.9133   -5.7423    0.0000 C   0  0  0  0  0  0  0  0  0  0  0  0
   -1.2030   -5.3255    0.0000 C   0  0  0  0  0  0  0  0  0  0  0  0
   -1.2065   -4.4980    0.0000 C   0  0  0  0  0  0  0  0  0  0  0  0
   -1.9266   -4.0890    0.0000 C   0  0  0  0  0  0  0  0  0  0  0  0
   -2.6431   -4.5075    0.0000 C   0  0  0  0  0  0  0  0  0  0  0  0
 13 14  1  0
  1  2  1  0
 14 15  1  0
  7  8  2  0
 15 16  2  0
  1  6  1  0
  3 17  2  0
  8  9  1  0
  2  3  1  0
 18 19  2  0
  9 10  2  0
 19 20  1  0
  3  4  1  0
 20 21  2  0
 10 11  1  0
 21 22  1  0
  4  5  1  0
 22 23  2  0
 23 18  1  0
  4 18  1  0
 11 12  2  0
 15 24  1  0
 24 25  1  0
 12  7  1  0
  6  7  1  0
  5  6  2  0
 10 13  1  0
 24 29  1  0
 25 26  1  0
 26 27  1  0
 27 28  1  0
 28 29  1  0
M  END

> <chembl_id>
CHEMBL1080594

> <chembl_pref_name>
None

$$$$

     RDKit          2D

 37 41  0  0  0  0  0  0  0  0999 V2000
    6.1188   -0.5649    0.0000 C   0  0  0  0  0  0  0  0  0  0  0  0
    5.7063   -1.2794    0.0000 C   0  0  0  0  0  0  0  0  0  0  0  0
    6.1188   -1.9938    0.0000 C   0  0  0  0  0  0  0  0  0  0  0  0
    5.7063   -2.7083    0.0000 C   0  0  0  0  0  0  0  0  0  0  0  0
    6.1188    0.8641    0.0000 C   0  0  0  0  0  0  0  0  0  0  0  0
    5.7063    1.5785    0.0000 C   0  0  0  0  0  0  0  0  0  0  0  0
    4.8813    1.5785    0.0000 N   0  0  0  0  0  0  0  0  0  0  0  0
    4.4688    0.8641    0.0000 C   0  0  0  0  0  0  0  0  0  0  0  0
    4.8813    0.1496    0.0000 C   0  0  0  0  0  0  0  0  0  0  0  0
    5.7063    0.1496    0.0000 N   0  0  0  0  0  0  0  0  0  0  0  0
    7.7688    0.8641    0.0000 N   0  0  0  0  0  0  0  0  0  0  0  0
    7.3563    1.5785    0.0000 C   0  0  0  0  0  0  0  0  0  0  0  0
    6.5313    1.5785    0.0000 C   0  0  0  0  0  0  0  0  0  0  0  0
    6.5313    0.1496    0.0000 C   0  0  0  0  0  0  0  0  0  0  0  0
    7.3563    0.1496    0.0000 C   0  0  0  0  0  0  0  0  0  0  0  0
   12.3063   -2.7083    0.0000 C   0  0  0  0  0  0  0  0  0  0  0  0
   11.4813   -2.7083    0.0000 C   0  0  0  0  0  0  0  0  0  0  0  0
   11.0688   -1.9938    0.0000 C   0  0  0  0  0  0  0  0  0  0  0  0
   11.4813   -1.2794    0.0000 C   0  0  0  0  0  0  0  0  0  0  0  0
   12.3063   -1.2794    0.0000 C   0  0  0  0  0  0  0  0  0  0  0  0
   12.7188   -1.9938    0.0000 C   0  0  0  0  0  0  0  0  0  0  0  0
   10.2438   -1.9938    0.0000 O   0  0  0  0  0  0  0  0  0  0  0  0
    9.8313   -1.2794    0.0000 C   0  0  0  0  0  0  0  0  0  0  0  0
    9.0063   -1.2794    0.0000 C   0  0  0  0  0  0  0  0  0  0  0  0
    8.5938   -0.5649    0.0000 C   0  0  0  0  0  0  0  0  0  0  0  0
    9.0063    0.1496    0.0000 C   0  0  0  0  0  0  0  0  0  0  0  0
    9.8313    0.1496    0.0000 C   0  0  0  0  0  0  0  0  0  0  0  0
   10.2438   -0.5649    0.0000 C   0  0  0  0  0  0  0  0  0  0  0  0
    8.5938    0.8641    0.0000 C   0  0  0  0  0  0  0  0  0  0  0  0
    6.1188    2.2930    0.0000 O   0  0  0  0  0  0  0  0  0  0  0  0
    4.4688   -0.5649    0.0000 O   0  0  0  0  0  0  0  0  0  0  0  0
    3.6438    0.8641    0.0000 C   0  0  0  0  0  0  0  0  0  0  0  0
    3.2313    1.5785    0.0000 C   0  0  0  0  0  0  0  0  0  0  0  0
    2.4108    1.6648    0.0000 C   0  0  0  0  0  0  0  0  0  0  0  0
    2.2393    2.4717    0.0000 C   0  0  0  0  0  0  0  0  0  0  0  0
    2.9538    2.8842    0.0000 C   0  0  0  0  0  0  0  0  0  0  0  0
    3.5669    2.3322    0.0000 C   0  0  0  0  0  0  0  0  0  0  0  0
  1  2  1  0
  2  3  1  0
  3  4  1  0
  5 10  1  0
 22 23  1  0
  6  7  1  0
 23 24  2  0
 11 15  1  0
 24 25  1  0
 12 13  1  0
 25 26  2  0
 13  5  1  0
 26 27  1  0
  5 14  1  0
 27 28  2  0
 28 23  1  0
 14 15  1  0
 26 29  1  0
 29 11  1  0
  7  8  1  0
  6 30  2  0
  8  9  1  0
  9 31  2  0
 16 17  2  0
  9 10  1  0
 17 18  1  0
 11 12  1  0
 18 19  2  0
  8 32  1  0
 32 33  1  0
 33 34  1  0
 19 20  1  0
 20 21  2  0
 21 16  1  0
 34 35  1  0
 35 36  1  0
 36 37  1  0
 37 33  1  0
  5  6  1  0
 18 22  1  0
 10  1  1  0
M  END

> <chembl_id>
CHEMBL1199991

> <chembl_pref_name>
None

$$$$

     RDKit          2D

 21 24  0  0  1  0  0  0  0  0999 V2000
    3.0277   -2.7486    0.0000 N   0  0  0  0  0  0  0  0  0  0  0  0
    1.5992   -1.9158    0.0000 C   0  0  0  0  0  0  0  0  0  0  0  0
    2.3114   -1.5035    0.0000 C   0  0  0  0  0  0  0  0  0  0  0  0
    1.5909   -2.7404    0.0000 C   0  0  0  0  0  0  0  0  0  0  0  0
    3.0277   -1.9158    0.0000 C   0  0  0  0  0  0  0  0  0  0  0  0
    2.3114   -3.1609    0.0000 C   0  0  0  0  0  0  0  0  0  0  0  0
    3.0235   -1.0870    0.0000 C   0  0  0  0  0  0  0  0  0  0  0  0
    3.6399   -3.3026    0.0000 C   0  0  0  0  0  0  0  0  0  0  0  0
    0.8788   -1.5035    0.0000 C   0  0  0  0  0  0  0  0  0  0  0  0
    0.8788   -3.1609    0.0000 C   0  0  0  0  0  0  0  0  0  0  0  0
    2.4780   -3.9647    0.0000 C   0  0  0  0  0  0  0  0  0  0  0  0
    3.3026   -4.0605    0.0000 C   0  0  0  0  0  0  0  0  0  0  0  0
    3.0110   -0.2666    0.0000 C   0  0  0  0  0  0  0  0  0  0  0  0
    3.7399   -1.4910    0.0000 C   0  0  0  0  0  0  0  0  0  0  0  0
    0.1666   -1.9241    0.0000 C   0  0  0  0  0  0  0  0  0  0  0  0
    0.1666   -2.7486    0.0000 C   0  0  0  0  0  0  0  0  0  0  0  0
    4.4478   -1.0745    0.0000 C   0  0  0  0  0  0  0  0  0  0  0  0
    3.7149    0.1582    0.0000 C   0  0  0  0  0  0  0  0  0  0  0  0
    4.4395   -0.2499    0.0000 C   0  0  0  0  0  0  0  0  0  0  0  0
    1.5909   -3.5649    0.0000 H   0  0  0  0  0  0  0  0  0  0  0  0
    1.7242   -0.9162    0.0000 H   0  0  0  0  0  0  0  0  0  0  0  0
  2  4  1  0
  3  5  1  0
  4  6  1  0
  5  1  1  0
  6  1  1  0
  3  7  1  6
  8  1  1  0
  9  2  2  0
 10  4  2  0
 11  6  1  0
 12  8  1  0
 13  7  1  0
 14  7  2  0
 15 16  2  0
 16 10  1  0
 17 14  1  0
 18 13  2  0
 19 17  2  0
  6 20  1  6
  3 21  1  1
 12 11  1  0
  2  3  1  0
  9 15  1  0
 19 18  1  0
M  END

> <chembl_id>
CHEMBL33367

> <chembl_pref_name>
None

$$$$

     RDKit          2D

 24 26  0  0  0  0  0  0  0  0999 V2000
   -0.6252    0.0516    0.0000 O   0  0  0  0  0  0  0  0  0  0  0  0
    0.8038   -0.7734    0.0000 O   0  0  0  0  0  0  0  0  0  0  0  0
   -0.6252    1.7016    0.0000 N   0  0  0  0  0  0  0  0  0  0  0  0
    0.8038    1.7016    0.0000 C   0  0  0  0  0  0  0  0  0  0  0  0
    0.8038    2.5266    0.0000 C   0  0  0  0  0  0  0  0  0  0  0  0
   -0.6252   -0.7734    0.0000 C   0  0  0  0  0  0  0  0  0  0  0  0
    0.0893   -1.1859    0.0000 C   0  0  0  0  0  0  0  0  0  0  0  0
    0.0893    1.2891    0.0000 C   0  0  0  0  0  0  0  0  0  0  0  0
   -0.6252   -2.4234    0.0000 C   0  0  0  0  0  0  0  0  0  0  0  0
    0.0893   -2.0109    0.0000 C   0  0  0  0  0  0  0  0  0  0  0  0
    0.0893    2.9391    0.0000 C   0  0  0  0  0  0  0  0  0  0  0  0
   -0.6252    2.5266    0.0000 C   0  0  0  0  0  0  0  0  0  0  0  0
   -1.3396   -1.1859    0.0000 C   0  0  0  0  0  0  0  0  0  0  0  0
    1.5183    1.2891    0.0000 C   0  0  0  0  0  0  0  0  0  0  0  0
    1.5183    2.9391    0.0000 C   0  0  0  0  0  0  0  0  0  0  0  0
   -1.3396   -2.0109    0.0000 C   0  0  0  0  0  0  0  0  0  0  0  0
   -1.3396    1.2891    0.0000 C   0  0  0  0  0  0  0  0  0  0  0  0
   -1.3396    0.4641    0.0000 C   0  0  0  0  0  0  0  0  0  0  0  0
    2.2327    1.7016    0.0000 C   0  0  0  0  0  0  0  0  0  0  0  0
    2.2327    2.5266    0.0000 C   0  0  0  0  0  0  0  0  0  0  0  0
   -0.6252   -3.2484    0.0000 C   0  0  0  0  0  0  0  0  0  0  0  0
   -1.3396   -3.6609    0.0000 C   0  0  0  0  0  0  0  0  0  0  0  0
    1.5183   -1.1859    0.0000 C   0  0  0  0  0  0  0  0  0  0  0  0
   -1.3396   -4.4859    0.0000 C   0  0  0  0  0  0  0  0  0  0  0  0
  1  6  1  0
  1 18  1  0
  2  7  1  0
  2 23  1  0
  3  8  1  0
  3 12  1  0
  3 17  1  0
  4  5  1  0
  4  8  1  0
  4 14  2  0
  5 11  1  0
  5 15  2  0
  6  7  1  0
  6 13  2  0
  7 10  2  0
  9 10  1  0
  9 16  2  0
  9 21  1  0
 11 12  1  0
 13 16  1  0
 14 19  1  0
 15 20  1  0
 17 18  1  0
 19 20  2  0
 21 22  1  0
 22 24  2  0
M  END

> <chembl_id>
CHEMBL1621791

> <chembl_pref_name>
None

$$$$

     RDKit          2D

 25 27  0  0  0  0  0  0  0  0999 V2000
    0.3426    0.1800    0.0000 O   0  0  0  0  0  0  0  0  0  0  0  0
    1.0571    1.4175    0.0000 O   0  0  0  0  0  0  0  0  0  0  0  0
   -1.8008    2.2425    0.0000 N   0  0  0  0  0  0  0  0  0  0  0  0
   -1.0863    0.1800    0.0000 C   0  0  0  0  0  0  0  0  0  0  0  0
   -0.3718   -0.2325    0.0000 C   0  0  0  0  0  0  0  0  0  0  0  0
   -1.0863    1.0050    0.0000 C   0  0  0  0  0  0  0  0  0  0  0  0
   -1.8008   -1.0575    0.0000 C   0  0  0  0  0  0  0  0  0  0  0  0
   -1.0863   -1.4700    0.0000 C   0  0  0  0  0  0  0  0  0  0  0  0
   -1.8008   -0.2325    0.0000 C   0  0  0  0  0  0  0  0  0  0  0  0
   -0.3718   -1.0575    0.0000 C   0  0  0  0  0  0  0  0  0  0  0  0
   -0.3718    1.4175    0.0000 C   0  0  0  0  0  0  0  0  0  0  0  0
    0.3426    1.0050    0.0000 C   0  0  0  0  0  0  0  0  0  0  0  0
   -1.8008    1.4175    0.0000 C   0  0  0  0  0  0  0  0  0  0  0  0
   -2.5153   -1.4700    0.0000 C   0  0  0  0  0  0  0  0  0  0  0  0
   -1.0863   -2.2950    0.0000 C   0  0  0  0  0  0  0  0  0  0  0  0
   -2.5153   -2.2950    0.0000 C   0  0  0  0  0  0  0  0  0  0  0  0
   -1.8008   -2.7075    0.0000 C   0  0  0  0  0  0  0  0  0  0  0  0
   -2.5153    2.6550    0.0000 C   0  0  0  0  0  0  0  0  0  0  0  0
   -1.0863    2.6550    0.0000 C   0  0  0  0  0  0  0  0  0  0  0  0
   -2.5153    3.4800    0.0000 C   0  0  0  0  0  0  0  0  0  0  0  0
   -1.0863    3.4800    0.0000 C   0  0  0  0  0  0  0  0  0  0  0  0
   -3.2297    3.8925    0.0000 C   0  0  0  0  0  0  0  0  0  0  0  0
   -1.8008    3.8925    0.0000 C   0  0  0  0  0  0  0  0  0  0  0  0
   -1.4219    4.2337    0.0000 C   0  0  0  0  0  0  0  0  0  0  0  0
   -0.3718    3.8925    0.0000 C   0  0  0  0  0  0  0  0  0  0  0  0
  1  5  1  0
  1 12  1  0
  2 12  2  0
  3 13  1  0
  3 18  1  0
  3 19  1  0
  4  5  1  0
  4  6  1  0
  4  9  2  0
  5 10  2  0
  6 11  2  0
  6 13  1  0
  7  8  2  0
  7  9  1  0
  7 14  1  0
  8 10  1  0
  8 15  1  0
 11 12  1  0
 14 16  1  0
 15 17  1  0
 16 17  1  0
 18 20  1  0
 19 21  1  0
 20 22  1  0
 20 23  1  0
 21 24  1  0
 21 25  1  0
M  END

> <chembl_id>
CHEMBL1406942

> <chembl_pref_name>
None

$$$$

     RDKit          2D

 36 38  0  0  0  0  0  0  0  0999 V2000
   -2.9500    2.2275    0.0000 S   0  0  0  0  0  0  0  0  0  0  0  0
   -1.8698   -0.8907    0.0000 O   0  0  0  0  0  0  0  0  0  0  0  0
   -3.7295    1.9574    0.0000 O   0  0  0  0  0  0  0  0  0  0  0  0
   -2.1704    2.4975    0.0000 O   0  0  0  0  0  0  0  0  0  0  0  0
    0.2905   -0.5789    0.0000 O   0  0  0  0  0  0  0  0  0  0  0  0
    0.8306    0.0447    0.0000 O   0  0  0  0  0  0  0  0  0  0  0  0
   -0.7896    0.3566    0.0000 N   0  0  0  0  0  0  0  0  0  0  0  0
   -3.2200    3.0070    0.0000 N   0  0  0  0  0  0  0  0  0  0  0  0
    1.1007    1.4479    0.0000 N   0  0  0  0  0  0  0  0  0  0  0  0
    3.2610    1.7598    0.0000 N   0  0  0  0  0  0  0  0  0  0  0  0
   -1.5998    0.5125    0.0000 C   0  0  0  0  0  0  0  0  0  0  0  0
   -2.6799    1.4479    0.0000 C   0  0  0  0  0  0  0  0  0  0  0  0
   -2.1399   -0.1112    0.0000 C   0  0  0  0  0  0  0  0  0  0  0  0
   -1.8698    1.2920    0.0000 C   0  0  0  0  0  0  0  0  0  0  0  0
   -3.2200    0.8243    0.0000 C   0  0  0  0  0  0  0  0  0  0  0  0
   -0.5196   -0.4230    0.0000 C   0  0  0  0  0  0  0  0  0  0  0  0
   -2.9500    0.0447    0.0000 C   0  0  0  0  0  0  0  0  0  0  0  0
   -1.0597   -1.0466    0.0000 C   0  0  0  0  0  0  0  0  0  0  0  0
   -0.2495    0.9802    0.0000 C   0  0  0  0  0  0  0  0  0  0  0  0
   -4.0302    3.1630    0.0000 C   0  0  0  0  0  0  0  0  0  0  0  0
   -2.6799    3.6307    0.0000 C   0  0  0  0  0  0  0  0  0  0  0  0
    0.5606    0.8243    0.0000 C   0  0  0  0  0  0  0  0  0  0  0  0
   -4.3002    3.9425    0.0000 C   0  0  0  0  0  0  0  0  0  0  0  0
   -2.9500    4.4102    0.0000 C   0  0  0  0  0  0  0  0  0  0  0  0
   -3.7601    4.5661    0.0000 C   0  0  0  0  0  0  0  0  0  0  0  0
   -4.0302    5.3457    0.0000 C   0  0  0  0  0  0  0  0  0  0  0  0
    1.9108    1.2920    0.0000 C   0  0  0  0  0  0  0  0  0  0  0  0
    2.4509    1.9157    0.0000 C   0  0  0  0  0  0  0  0  0  0  0  0
    3.8011    2.3834    0.0000 C   0  0  0  0  0  0  0  0  0  0  0  0
    3.5311    0.9802    0.0000 C   0  0  0  0  0  0  0  0  0  0  0  0
    3.5311    3.1630    0.0000 C   0  0  0  0  0  0  0  0  0  0  0  0
    4.3412    0.8243    0.0000 C   0  0  0  0  0  0  0  0  0  0  0  0
    2.7209    3.3189    0.0000 C   0  0  0  0  0  0  0  0  0  0  0  0
    4.0712    3.7866    0.0000 C   0  0  0  0  0  0  0  0  0  0  0  0
    4.8813    1.4479    0.0000 C   0  0  0  0  0  0  0  0  0  0  0  0
    4.6113    0.0447    0.0000 C   0  0  0  0  0  0  0  0  0  0  0  0
  1  3  2  0
  1  4  2  0
  1  8  1  0
  1 12  1  0
  2 13  1  0
  2 18  1  0
  5 16  2  0
  6 22  2  0
  7 11  1  0
  7 16  1  0
  7 19  1  0
  8 20  1  0
  8 21  1  0
  9 22  1  0
  9 27  1  0
 10 28  1  0
 10 29  1  0
 10 30  1  0
 11 13  1  0
 11 14  2  0
 12 14  1  0
 12 15  2  0
 13 17  2  0
 15 17  1  0
 16 18  1  0
 19 22  1  0
 20 23  1  0
 21 24  1  0
 23 25  1  0
 24 25  1  0
 25 26  1  0
 27 28  1  0
 29 31  1  0
 30 32  1  0
 31 33  1  0
 31 34  1  0
 32 35  1  0
 32 36  1  0
M  END

> <chembl_id>
CHEMBL1406394

> <chembl_pref_name>
None

$$$$

     RDKit          2D

 30 31  0  0  0  0  0  0  0  0999 V2000
    6.0042    0.7145    0.0000 O   0  0  0  0  0  0  0  0  0  0  0  0
    4.3542   -0.7145    0.0000 O   0  0  0  0  0  0  0  0  0  0  0  0
    6.0042   -0.7145    0.0000 O   0  0  0  0  0  0  0  0  0  0  0  0
    4.3542    0.7145    0.0000 O   0  0  0  0  0  0  0  0  0  0  0  0
    5.5917    0.0000    0.0000 C   0  0  0  0  0  0  0  0  0  0  0  0
    4.7667    0.0000    0.0000 C   0  0  0  0  0  0  0  0  0  0  0  0
   -0.6252    0.0516    0.0000 O   0  0  0  0  0  0  0  0  0  0  0  0
    0.8038   -0.7734    0.0000 O   0  0  0  0  0  0  0  0  0  0  0  0
   -0.6252    1.7016    0.0000 N   0  0  0  0  0  0  0  0  0  0  0  0
    0.8038    1.7016    0.0000 C   0  0  0  0  0  0  0  0  0  0  0  0
    0.8038    2.5266    0.0000 C   0  0  0  0  0  0  0  0  0  0  0  0
   -0.6252   -0.7734    0.0000 C   0  0  0  0  0  0  0  0  0  0  0  0
    0.0893   -1.1859    0.0000 C   0  0  0  0  0  0  0  0  0  0  0  0
    0.0893    1.2891    0.0000 C   0  0  0  0  0  0  0  0  0  0  0  0
   -0.6252   -2.4234    0.0000 C   0  0  0  0  0  0  0  0  0  0  0  0
    0.0893   -2.0109    0.0000 C   0  0  0  0  0  0  0  0  0  0  0  0
    0.0893    2.9391    0.0000 C   0  0  0  0  0  0  0  0  0  0  0  0
   -0.6252    2.5266    0.0000 C   0  0  0  0  0  0  0  0  0  0  0  0
   -1.3396   -1.1859    0.0000 C   0  0  0  0  0  0  0  0  0  0  0  0
    1.5183    1.2891    0.0000 C   0  0  0  0  0  0  0  0  0  0  0  0
    1.5183    2.9391    0.0000 C   0  0  0  0  0  0  0  0  0  0  0  0
   -1.3396   -2.0109    0.0000 C   0  0  0  0  0  0  0  0  0  0  0  0
   -1.3396    1.2891    0.0000 C   0  0  0  0  0  0  0  0  0  0  0  0
   -1.3396    0.4641    0.0000 C   0  0  0  0  0  0  0  0  0  0  0  0
    2.2327    1.7016    0.0000 C   0  0  0  0  0  0  0  0  0  0  0  0
    2.2327    2.5266    0.0000 C   0  0  0  0  0  0  0  0  0  0  0  0
   -0.6252   -3.2484    0.0000 C   0  0  0  0  0  0  0  0  0  0  0  0
   -1.3396   -3.6609    0.0000 C   0  0  0  0  0  0  0  0  0  0  0  0
    1.5183   -1.1859    0.0000 C   0  0  0  0  0  0  0  0  0  0  0  0
   -1.3396   -4.4859    0.0000 C   0  0  0  0  0  0  0  0  0  0  0  0
  1  5  2  0
  2  6  2  0
  3  5  1  0
  4  6  1  0
  5  6  1  0
  7 12  1  0
  7 24  1  0
  8 13  1  0
  8 29  1  0
  9 14  1  0
  9 18  1  0
  9 23  1  0
 10 11  1  0
 10 14  1  0
 10 20  2  0
 11 17  1  0
 11 21  2  0
 12 13  1  0
 12 19  2  0
 13 16  2  0
 15 16  1  0
 15 22  2  0
 15 27  1  0
 17 18  1  0
 19 22  1  0
 20 25  1  0
 21 26  1  0
 23 24  1  0
 25 26  2  0
 27 28  1  0
 28 30  2  0
M  END

> <chembl_id>
CHEMBL1440698

> <chembl_pref_name>
None

$$$$

     RDKit          2D

 20 23  0  0  0  0  0  0  0  0999 V2000
   13.1929  -12.9937    0.0000 N   0  0  0  0  0  0  0  0  0  0  0  0
   13.1917  -13.8234    0.0000 C   0  0  0  0  0  0  0  0  0  0  0  0
   13.9085  -14.2373    0.0000 N   0  0  0  0  0  0  0  0  0  0  0  0
   13.9066  -12.5798    0.0000 C   0  0  0  0  0  0  0  0  0  0  0  0
   14.6240  -12.9901    0.0000 C   0  0  0  0  0  0  0  0  0  0  0  0
   14.6243  -13.8234    0.0000 C   0  0  0  0  0  0  0  0  0  0  0  0
   15.4188  -14.0785    0.0000 N   0  0  0  0  0  0  0  0  0  0  0  0
   15.9066  -13.4064    0.0000 N   0  0  0  0  0  0  0  0  0  0  0  0
   15.4164  -12.7324    0.0000 C   0  0  0  0  0  0  0  0  0  0  0  0
   15.8278  -12.0173    0.0000 C   0  0  0  0  0  0  0  0  0  0  0  0
   13.9042  -11.7525    0.0000 N   0  0  0  0  0  0  0  0  0  0  0  0
   15.8415  -14.7896    0.0000 C   0  0  0  0  0  0  0  0  0  0  0  0
   16.6465  -11.9285    0.0000 S   0  0  0  0  0  0  0  0  0  0  0  0
   15.4894  -11.2631    0.0000 C   0  0  0  0  0  0  0  0  0  0  0  0
   16.1014  -10.7100    0.0000 C   0  0  0  0  0  0  0  0  0  0  0  0
   16.8143  -11.1229    0.0000 C   0  0  0  0  0  0  0  0  0  0  0  0
   17.5263  -10.7120    0.0000 C   0  0  0  0  0  0  0  0  0  0  0  0
   17.5265   -9.8884    0.0000 C   0  0  0  0  0  0  0  0  0  0  0  0
   16.8088   -9.4773    0.0000 C   0  0  0  0  0  0  0  0  0  0  0  0
   16.0998   -9.8906    0.0000 C   0  0  0  0  0  0  0  0  0  0  0  0
  4  1  1  0
  9 10  1  0
  5  6  1  0
  4 11  1  0
  7 12  1  0
 10 13  1  0
  2  3  1  0
  3  6  2  0
 13 16  1  0
 15 14  1  0
 14 10  2  0
  1  2  2  0
  5  4  2  0
 15 16  2  0
  6  7  1  0
 16 17  1  0
  7  8  1  0
 17 18  2  0
  8  9  2  0
 18 19  1  0
  9  5  1  0
 19 20  2  0
 20 15  1  0
M  END

> <chembl_id>
CHEMBL1240594

> <chembl_pref_name>
None

$$$$

     RDKit          2D

 18 19  0  0  0  0  0  0  0  0999 V2000
   -3.9040   -3.8894    0.0000 Cl  0  0  0  0  0  0  0  0  0  0  0  0
   -1.7606   -2.6519    0.0000 S   0  0  0  0  0  0  0  0  0  0  0  0
   -2.4751   -1.4144    0.0000 N   0  0  0  0  0  0  0  0  0  0  0  0
   -1.0461   -1.4144    0.0000 N   0  0  0  0  0  0  0  0  0  0  0  0
    1.8118   -0.5894    0.0000 N   0  0  0  0  0  0  0  0  0  0  0  0
   -3.1895   -1.8269    0.0000 C   0  0  0  0  0  0  0  0  0  0  0  0
   -1.7606   -1.8269    0.0000 C   0  0  0  0  0  0  0  0  0  0  0  0
   -3.1895   -2.6519    0.0000 C   0  0  0  0  0  0  0  0  0  0  0  0
   -3.9040   -3.0644    0.0000 C   0  0  0  0  0  0  0  0  0  0  0  0
    0.3828   -1.4144    0.0000 C   0  0  0  0  0  0  0  0  0  0  0  0
   -3.9040   -1.4144    0.0000 C   0  0  0  0  0  0  0  0  0  0  0  0
   -0.3317   -1.8269    0.0000 C   0  0  0  0  0  0  0  0  0  0  0  0
   -4.6185   -2.6519    0.0000 C   0  0  0  0  0  0  0  0  0  0  0  0
   -4.6185   -1.8269    0.0000 C   0  0  0  0  0  0  0  0  0  0  0  0
    1.0973   -1.8269    0.0000 C   0  0  0  0  0  0  0  0  0  0  0  0
    0.3828   -0.5894    0.0000 C   0  0  0  0  0  0  0  0  0  0  0  0
    1.8118   -1.4144    0.0000 C   0  0  0  0  0  0  0  0  0  0  0  0
    1.0973   -0.1769    0.0000 C   0  0  0  0  0  0  0  0  0  0  0  0
  1  9  1  0
  2  7  2  0
  3  6  1  0
  3  7  1  0
  4  7  1  0
  4 12  1  0
  5 17  2  0
  5 18  1  0
  6  8  2  0
  6 11  1  0
  8  9  1  0
  9 13  2  0
 10 12  1  0
 10 15  2  0
 10 16  1  0
 11 14  2  0
 13 14  1  0
 15 17  1  0
 16 18  2  0
M  END

> <chembl_id>
CHEMBL1400695

> <chembl_pref_name>
None

$$$$

     RDKit          2D

 19 20  0  0  0  0  0  0  0  0999 V2000
   -4.9336    2.8180    0.0000 F   0  0  0  0  0  0  0  0  0  0  0  0
   -1.3613   -0.0695    0.0000 O   0  0  0  0  0  0  0  0  0  0  0  0
   -2.7902   -0.0695    0.0000 O   0  0  0  0  0  0  0  0  0  0  0  0
   -0.6468   -3.7820    0.0000 O   0  0  0  0  0  0  0  0  0  0  0  0
   -1.3613   -0.8945    0.0000 C   0  0  0  0  0  0  0  0  0  0  0  0
   -2.7902    1.5805    0.0000 C   0  0  0  0  0  0  0  0  0  0  0  0
   -2.0757    0.3430    0.0000 C   0  0  0  0  0  0  0  0  0  0  0  0
   -2.0757    1.1680    0.0000 C   0  0  0  0  0  0  0  0  0  0  0  0
   -1.3613   -2.5445    0.0000 C   0  0  0  0  0  0  0  0  0  0  0  0
   -0.6468   -1.3070    0.0000 C   0  0  0  0  0  0  0  0  0  0  0  0
   -2.0757   -1.3070    0.0000 C   0  0  0  0  0  0  0  0  0  0  0  0
   -0.6468   -2.1320    0.0000 C   0  0  0  0  0  0  0  0  0  0  0  0
   -2.0757   -2.1320    0.0000 C   0  0  0  0  0  0  0  0  0  0  0  0
   -3.5047    1.1680    0.0000 C   0  0  0  0  0  0  0  0  0  0  0  0
   -2.7902    2.4055    0.0000 C   0  0  0  0  0  0  0  0  0  0  0  0
   -4.2191    2.4055    0.0000 C   0  0  0  0  0  0  0  0  0  0  0  0
   -4.2191    1.5805    0.0000 C   0  0  0  0  0  0  0  0  0  0  0  0
   -3.5047    2.8180    0.0000 C   0  0  0  0  0  0  0  0  0  0  0  0
   -1.3613   -3.3695    0.0000 C   0  0  0  0  0  0  0  0  0  0  0  0
  1 16  1  0
  2  5  1  0
  2  7  1  0
  3  7  2  0
  4 19  2  0
  5 10  2  0
  5 11  1  0
  6  8  1  0
  6 14  2  0
  6 15  1  0
  7  8  1  0
  9 12  2  0
  9 13  1  0
  9 19  1  0
 10 12  1  0
 11 13  2  0
 14 17  1  0
 15 18  2  0
 16 17  2  0
 16 18  1  0
M  END

> <chembl_id>
CHEMBL1340664

> <chembl_pref_name>
None

$$$$

     RDKit          2D

 35 38  0  0  0  0  0  0  0  0999 V2000
   14.5333  -27.8299    0.0000 C   0  0  0  0  0  0  0  0  0  0  0  0
   14.5320  -28.6575    0.0000 C   0  0  0  0  0  0  0  0  0  0  0  0
   15.2455  -29.0681    0.0000 C   0  0  0  0  0  0  0  0  0  0  0  0
   15.9609  -28.6570    0.0000 C   0  0  0  0  0  0  0  0  0  0  0  0
   15.9578  -27.8260    0.0000 C   0  0  0  0  0  0  0  0  0  0  0  0
   15.2436  -27.4149    0.0000 C   0  0  0  0  0  0  0  0  0  0  0  0
   16.6738  -27.4082    0.0000 F   0  0  0  0  0  0  0  0  0  0  0  0
   15.2410  -26.5899    0.0000 C   0  0  0  0  0  0  0  0  0  0  0  0
   15.9527  -26.1774    0.0000 O   0  0  0  0  0  0  0  0  0  0  0  0
   14.5261  -26.1821    0.0000 N   0  0  0  0  0  0  0  0  0  0  0  0
   13.8200  -27.4153    0.0000 O   0  0  0  0  0  0  0  0  0  0  0  0
   13.1069  -27.8303    0.0000 C   0  0  0  0  0  0  0  0  0  0  0  0
   12.3891  -27.4158    0.0000 C   0  0  0  0  0  0  0  0  0  0  0  0
   11.6760  -27.8307    0.0000 N   0  0  0  0  0  0  0  0  0  0  0  0
   12.3889  -26.5908    0.0000 O   0  0  0  0  0  0  0  0  0  0  0  0
   10.9582  -27.4161    0.0000 C   0  0  0  0  0  0  0  0  0  0  0  0
   10.2451  -27.8311    0.0000 C   0  0  0  0  0  0  0  0  0  0  0  0
   10.9580  -26.5911    0.0000 C   0  0  0  0  0  0  0  0  0  0  0  0
   10.2447  -26.1811    0.0000 O   0  0  0  0  0  0  0  0  0  0  0  0
    9.5318  -27.4165    0.0000 C   0  0  0  0  0  0  0  0  0  0  0  0
    9.5362  -26.5916    0.0000 C   0  0  0  0  0  0  0  0  0  0  0  0
    8.8237  -26.1817    0.0000 C   0  0  0  0  0  0  0  0  0  0  0  0
    8.1097  -26.5921    0.0000 C   0  0  0  0  0  0  0  0  0  0  0  0
    8.1127  -27.4172    0.0000 C   0  0  0  0  0  0  0  0  0  0  0  0
    8.8257  -27.8322    0.0000 C   0  0  0  0  0  0  0  0  0  0  0  0
   14.5506  -25.3583    0.0000 C   0  0  0  0  0  0  0  0  0  0  0  0
   13.7740  -25.0768    0.0000 C   0  0  0  0  0  0  0  0  0  0  0  0
   13.2676  -25.7272    0.0000 C   0  0  0  0  0  0  0  0  0  0  0  0
   13.7352  -26.4088    0.0000 C   0  0  0  0  0  0  0  0  0  0  0  0
   15.2552  -24.9415    0.0000 C   0  0  0  0  0  0  0  0  0  0  0  0
   15.9703  -25.3549    0.0000 C   0  0  0  0  0  0  0  0  0  0  0  0
   16.6791  -24.9402    0.0000 C   0  0  0  0  0  0  0  0  0  0  0  0
   16.6794  -24.1149    0.0000 C   0  0  0  0  0  0  0  0  0  0  0  0
   15.9642  -23.7061    0.0000 C   0  0  0  0  0  0  0  0  0  0  0  0
   15.2487  -24.1180    0.0000 C   0  0  0  0  0  0  0  0  0  0  0  0
 16 18  1  0
  8  9  2  0
 18 19  1  0
  4  5  1  0
 17 20  1  0
  8 10  1  0
 20 21  2  0
  2  3  1  0
 21 22  1  0
  1 11  1  0
 22 23  2  0
  5  6  2  0
 23 24  1  0
 11 12  1  0
 24 25  2  0
 25 20  1  0
 10 26  1  0
  6  1  1  0
 12 13  1  0
  1  2  2  0
 13 14  1  0
 26 27  1  0
 27 28  1  0
 28 29  1  0
 29 10  1  0
 30 31  1  0
  5  7  1  0
 13 15  2  0
  3  4  2  0
 16 14  1  1
  6  8  1  0
 16 17  1  0
 30 35  1  0
 31 32  1  0
 32 33  1  0
 33 34  1  0
 34 35  1  0
 26 30  1  0
M  END

> <chembl_id>
CHEMBL1090494

> <chembl_pref_name>
None

$$$$

     RDKit          2D

 36 39  0  0  0  0  0  0  0  0999 V2000
    5.7184   -6.7319    0.0000 C   0  0  0  0  0  0  0  0  0  0  0  0
    5.7184   -7.5569    0.0000 C   0  0  0  0  0  0  0  0  0  0  0  0
    6.4305   -7.9630    0.0000 C   0  0  0  0  0  0  0  0  0  0  0  0
    6.4305   -6.3130    0.0000 C   0  0  0  0  0  0  0  0  0  0  0  0
    7.1427   -6.7319    0.0000 C   0  0  0  0  0  0  0  0  0  0  0  0
    7.1443   -7.5569    0.0000 C   0  0  0  0  0  0  0  0  0  0  0  0
    7.8549   -7.9645    0.0000 C   0  0  0  0  0  0  0  0  0  0  0  0
    8.5668   -7.5541    0.0000 C   0  0  0  0  0  0  0  0  0  0  0  0
    7.8517   -6.3145    0.0000 C   0  0  0  0  0  0  0  0  0  0  0  0
    8.5681   -6.7301    0.0000 C   0  0  0  0  0  0  0  0  0  0  0  0
    8.5704   -5.0734    0.0000 C   0  0  0  0  0  0  0  0  0  0  0  0
    7.8461   -5.4874    0.0000 C   0  0  0  0  0  0  0  0  0  0  0  0
    9.2867   -5.4889    0.0000 C   0  0  0  0  0  0  0  0  0  0  0  0
    9.2820   -6.3207    0.0000 C   0  0  0  0  0  0  0  0  0  0  0  0
   10.0716   -6.5761    0.0000 C   0  0  0  0  0  0  0  0  0  0  0  0
   10.5601   -5.9079    0.0000 C   0  0  0  0  0  0  0  0  0  0  0  0
   10.0751   -5.2344    0.0000 C   0  0  0  0  0  0  0  0  0  0  0  0
    9.2828   -4.6630    0.0000 C   0  0  0  0  0  0  0  0  0  0  0  0
   10.4801   -4.5171    0.0000 C   0  0  0  0  0  0  0  0  0  0  0  0
   11.3050   -4.5083    0.0000 C   0  0  0  0  0  0  0  0  0  0  0  0
   10.0606   -3.8077    0.0000 C   0  0  0  0  0  0  0  0  0  0  0  0
   11.7245   -5.2177    0.0000 C   0  0  0  0  0  0  0  0  0  0  0  0
    6.0103   -8.6759    0.0000 C   0  0  0  0  0  0  0  0  0  0  0  0
    6.6386   -8.7605    0.0000 C   0  0  0  0  0  0  0  0  0  0  0  0
    7.1357   -5.9069    0.0000 C   0  0  0  0  0  0  0  0  0  0  0  0
    9.2764   -7.1444    0.0000 C   0  0  0  0  0  0  0  0  0  0  0  0
   12.5494   -5.2090    0.0000 C   0  0  0  0  0  0  0  0  0  0  0  0
   12.9689   -5.9183    0.0000 C   0  0  0  0  0  0  0  0  0  0  0  0
    7.1378   -8.3755    0.0000 H   0  0  0  0  0  0  0  0  0  0  0  0
   10.9001   -5.2344    0.0000 H   0  0  0  0  0  0  0  0  0  0  0  0
    9.2808   -7.9674    0.0000 O   0  0  0  0  0  0  0  0  0  0  0  0
   12.5639   -6.6370    0.0000 C   0  0  0  0  0  0  0  0  0  0  0  0
   13.7939   -5.9097    0.0000 C   0  0  0  0  0  0  0  0  0  0  0  0
   13.3750   -6.6292    0.0000 O   0  0  0  0  0  0  0  0  0  0  0  0
   14.2000   -6.6329    0.0000 O   0  0  0  0  0  0  0  0  0  0  0  0
    5.0034   -7.9668    0.0000 O   0  0  0  0  0  0  0  0  0  0  0  0
  5  6  1  0
  5  9  1  0
  6  7  1  0
  7  8  1  0
  8 10  1  0
  9 10  2  0
  9 12  1  0
 10 14  1  0
 13 11  1  0
 11 12  1  0
 13 14  1  0
 14 15  1  0
 15 16  1  0
 16 17  1  0
 17 13  1  0
 13 18  1  6
 17 19  1  0
 19 20  1  0
 19 21  1  1
 20 22  1  0
  3 23  1  0
  3 24  1  0
  5 25  1  1
 14 26  1  1
 22 27  2  0
 27 28  1  0
  6 29  1  6
 17 30  1  1
  8 31  2  0
  1  2  1  0
 28 32  1  0
  1  4  1  0
 28 33  1  0
  2  3  1  0
 28 34  1  0
  3  6  1  0
 34 35  1  0
  5  4  1  0
  2 36  1  1
M  END

> <chembl_id>
CHEMBL1080614

> <chembl_pref_name>
None

$$$$

     RDKit          2D

 27 29  0  0  0  0  0  0  0  0999 V2000
    9.6813   -0.2989    0.0000 C   0  0  0  0  0  0  0  0  0  0  0  0
   10.3960    0.1144    0.0000 C   0  0  0  0  0  0  0  0  0  0  0  0
   10.3954    0.9401    0.0000 C   0  0  0  0  0  0  0  0  0  0  0  0
    9.6781   -1.1246    0.0000 N   0  0  0  0  0  0  0  0  0  0  0  0
   10.3893   -1.5393    0.0000 C   0  0  0  0  0  0  0  0  0  0  0  0
   10.3913   -2.3660    0.0000 O   0  0  0  0  0  0  0  0  0  0  0  0
   11.8197   -1.5418    0.0000 C   0  0  0  0  0  0  0  0  0  0  0  0
   12.5345   -1.1323    0.0000 C   0  0  0  0  0  0  0  0  0  0  0  0
   13.2529   -1.5489    0.0000 C   0  0  0  0  0  0  0  0  0  0  0  0
   13.9672   -1.1355    0.0000 C   0  0  0  0  0  0  0  0  0  0  0  0
   14.6787   -1.5588    0.0000 C   0  0  0  0  0  0  0  0  0  0  0  0
   15.3932   -1.1474    0.0000 C   0  0  0  0  0  0  0  0  0  0  0  0
   15.3981   -0.3205    0.0000 N   0  0  0  0  0  0  0  0  0  0  0  0
   14.6795    0.0927    0.0000 C   0  0  0  0  0  0  0  0  0  0  0  0
   13.9652   -0.3202    0.0000 C   0  0  0  0  0  0  0  0  0  0  0  0
    8.9613   -1.5351    0.0000 C   0  0  0  0  0  0  0  0  0  0  0  0
    8.2439   -1.1192    0.0000 C   0  0  0  0  0  0  0  0  0  0  0  0
    6.9402    0.1441    0.0000 C   0  0  0  0  0  0  0  0  0  0  0  0
    7.4557    0.6060    0.0000 C   0  0  0  0  0  0  0  0  0  0  0  0
    8.1429    0.8027    0.0000 C   0  0  0  0  0  0  0  0  0  0  0  0
    7.7303    0.2495    0.0000 C   0  0  0  0  0  0  0  0  0  0  0  0
    8.2525    1.5559    0.0000 C   0  0  0  0  0  0  0  0  0  0  0  0
    8.6937    0.1631    0.0000 C   0  0  0  0  0  0  0  0  0  0  0  0
    8.2461   -0.2945    0.0000 C   0  0  0  0  0  0  0  0  0  0  0  0
   11.1101    1.3535    0.0000 O   0  0  0  0  0  0  0  0  0  0  0  0
   11.1095    2.1792    0.0000 C   0  0  0  0  0  0  0  0  0  0  0  0
   11.1052   -1.1293    0.0000 N   0  0  0  0  0  0  0  0  0  0  0  0
  4  5  1  0
  5  6  2  0
  7  8  1  0
  8  9  1  0
  9 10  1  0
 10 11  2  0
 11 12  1  0
 12 13  2  0
 13 14  1  0
 14 15  2  0
 15 10  1  0
  4 16  1  0
 16 17  1  0
 18 19  1  0
 19 20  1  0
 18 21  1  0
 21 22  1  0
 22 20  1  0
 20 23  1  0
 23 24  1  0
 24 21  1  0
 24 17  1  0
  4  1  1  0
  1  2  1  0
  3 25  1  0
 25 26  1  0
  2  3  1  0
  5 27  1  0
 27  7  1  0
M  END

> <chembl_id>
CHEMBL1210694

> <chembl_pref_name>
None

$$$$

     RDKit          2D

 25 27  0  0  0  0  0  0  0  0999 V2000
    3.4681   -2.0246    0.0000 O   0  0  0  0  0  0  0  0  0  0  0  0
    4.9202    0.4904    0.0000 O   0  0  0  0  0  0  0  0  0  0  0  0
    1.1371   -0.6521    0.0000 O   0  0  0  0  0  0  0  0  0  0  0  0
    2.5660   -1.4771    0.0000 O   0  0  0  0  0  0  0  0  0  0  0  0
    3.9950   -0.6521    0.0000 N   0  0  0  0  0  0  0  0  0  0  0  0
    3.2805   -0.2396    0.0000 N   0  0  0  0  0  0  0  0  0  0  0  0
    4.8882   -1.6441    0.0000 C   0  0  0  0  0  0  0  0  0  0  0  0
    5.3007   -0.9296    0.0000 C   0  0  0  0  0  0  0  0  0  0  0  0
    4.0812   -1.4726    0.0000 C   0  0  0  0  0  0  0  0  0  0  0  0
    4.7486   -0.3166    0.0000 C   0  0  0  0  0  0  0  0  0  0  0  0
    5.3007   -2.3586    0.0000 C   0  0  0  0  0  0  0  0  0  0  0  0
    6.1257   -0.9296    0.0000 C   0  0  0  0  0  0  0  0  0  0  0  0
    2.5660   -0.6521    0.0000 C   0  0  0  0  0  0  0  0  0  0  0  0
    6.1257   -2.3586    0.0000 C   0  0  0  0  0  0  0  0  0  0  0  0
    6.5382   -1.6441    0.0000 C   0  0  0  0  0  0  0  0  0  0  0  0
    0.4226   -0.2396    0.0000 C   0  0  0  0  0  0  0  0  0  0  0  0
   -0.2919   -0.6521    0.0000 C   0  0  0  0  0  0  0  0  0  0  0  0
    1.8516   -0.2396    0.0000 C   0  0  0  0  0  0  0  0  0  0  0  0
   -0.2919   -1.4771    0.0000 C   0  0  0  0  0  0  0  0  0  0  0  0
    0.4226    0.5854    0.0000 C   0  0  0  0  0  0  0  0  0  0  0  0
   -1.0063   -0.2396    0.0000 C   0  0  0  0  0  0  0  0  0  0  0  0
   -0.2919    0.9979    0.0000 C   0  0  0  0  0  0  0  0  0  0  0  0
   -1.0063    0.5854    0.0000 C   0  0  0  0  0  0  0  0  0  0  0  0
   -1.0063   -1.8896    0.0000 C   0  0  0  0  0  0  0  0  0  0  0  0
    0.4226   -1.8896    0.0000 C   0  0  0  0  0  0  0  0  0  0  0  0
  1  9  2  0
  2 10  2  0
  3 16  1  0
  3 18  1  0
  4 13  2  0
  5  6  1  0
  5  9  1  0
  5 10  1  0
  6 13  1  0
  7  8  1  0
  7  9  1  0
  7 11  2  0
  8 10  1  0
  8 12  2  0
 11 14  1  0
 12 15  1  0
 13 18  1  0
 14 15  2  0
 16 17  1  0
 16 20  2  0
 17 19  1  0
 17 21  2  0
 19 24  1  0
 19 25  1  0
 20 22  1  0
 21 23  1  0
 22 23  2  0
M  END

> <chembl_id>
CHEMBL1406794

> <chembl_pref_name>
None

$$$$

     RDKit          2D

 29 31  0  0  0  0  0  0  0  0999 V2000
    0.2660  -14.8946    0.0000 C   0  0  0  0  0  0  0  0  0  0  0  0
   -0.1524  -15.6097    0.0000 C   0  0  0  0  0  0  0  0  0  0  0  0
    0.2620  -16.3200    0.0000 C   0  0  0  0  0  0  0  0  0  0  0  0
    1.0902  -16.3213    0.0000 C   0  0  0  0  0  0  0  0  0  0  0  0
    1.5021  -15.6056    0.0000 C   0  0  0  0  0  0  0  0  0  0  0  0
    1.0896  -14.8939    0.0000 C   0  0  0  0  0  0  0  0  0  0  0  0
    2.3278  -15.5986    0.0000 N   0  0  0  0  0  0  0  0  0  0  0  0
    2.7435  -16.3148    0.0000 C   0  0  0  0  0  0  0  0  0  0  0  0
    3.5654  -16.3146    0.0000 C   0  0  0  0  0  0  0  0  0  0  0  0
    3.9781  -15.6060    0.0000 N   0  0  0  0  0  0  0  0  0  0  0  0
    3.5667  -14.8912    0.0000 C   0  0  0  0  0  0  0  0  0  0  0  0
    2.7380  -14.8897    0.0000 C   0  0  0  0  0  0  0  0  0  0  0  0
    4.8040  -15.6069    0.0000 C   0  0  0  0  0  0  0  0  0  0  0  0
    5.2184  -16.3169    0.0000 C   0  0  0  0  0  0  0  0  0  0  0  0
    1.4987  -14.1745    0.0000 Cl  0  0  0  0  0  0  0  0  0  0  0  0
   -0.9783  -15.6079    0.0000 N   0  0  0  0  0  0  0  0  0  0  0  0
   -1.3904  -16.3165    0.0000 C   0  0  0  0  0  0  0  0  0  0  0  0
   -2.2162  -16.3148    0.0000 C   0  0  0  0  0  0  0  0  0  0  0  0
   -0.9811  -17.0359    0.0000 O   0  0  0  0  0  0  0  0  0  0  0  0
   -2.6291  -15.6066    0.0000 C   0  0  0  0  0  0  0  0  0  0  0  0
   -3.4541  -15.6045    0.0000 C   0  0  0  0  0  0  0  0  0  0  0  0
   -3.8671  -16.3137    0.0000 C   0  0  0  0  0  0  0  0  0  0  0  0
   -3.4531  -17.0355    0.0000 C   0  0  0  0  0  0  0  0  0  0  0  0
   -2.6296  -17.0338    0.0000 C   0  0  0  0  0  0  0  0  0  0  0  0
   -2.2128  -17.7469    0.0000 F   0  0  0  0  0  0  0  0  0  0  0  0
   -3.8624  -17.7503    0.0000 F   0  0  0  0  0  0  0  0  0  0  0  0
   -4.6930  -16.3131    0.0000 F   0  0  0  0  0  0  0  0  0  0  0  0
   -3.8628  -14.8895    0.0000 F   0  0  0  0  0  0  0  0  0  0  0  0
   -2.2124  -14.8935    0.0000 F   0  0  0  0  0  0  0  0  0  0  0  0
 13 14  1  0
  5  7  1  0
  6 15  1  0
  7  8  1  0
  2 16  1  0
  3  4  2  0
 16 17  1  0
 17 18  1  0
  4  5  1  0
 17 19  2  0
  2  3  1  0
 18 20  2  0
  5  6  2  0
 20 21  1  0
  7 12  1  0
 21 22  2  0
  8  9  1  0
 22 23  1  0
  9 10  1  0
 23 24  2  0
 24 18  1  0
 10 11  1  0
 24 25  1  0
 11 12  1  0
 23 26  1  0
  6  1  1  0
 22 27  1  0
 10 13  1  0
 21 28  1  0
  1  2  2  0
 20 29  1  0
M  END

> <chembl_id>
CHEMBL1090094

> <chembl_pref_name>
None

$$$$

     RDKit          2D

 38 42  0  0  0  0  0  0  0  0999 V2000
   -1.4434    1.8771    0.0000 C   0  0  0  0  0  0  0  0  0  0  0  0
   -1.9165    2.5602    0.0000 O   0  0  0  0  0  0  0  0  0  0  0  0
   -2.7123    2.3213    0.0000 C   0  0  0  0  0  0  0  0  0  0  0  0
   -2.7311    1.4906    0.0000 N   0  0  0  0  0  0  0  0  0  0  0  0
   -1.9470    1.2176    0.0000 C   0  0  0  0  0  0  0  0  0  0  0  0
   -0.1861    2.5482    0.0000 C   0  0  0  0  0  0  0  0  0  0  0  0
   -1.0108    2.5722    0.0000 C   0  0  0  0  0  0  0  0  0  0  0  0
   -1.0521    1.1472    0.0000 C   0  0  0  0  0  0  0  0  0  0  0  0
   -0.2275    1.1232    0.0000 C   0  0  0  0  0  0  0  0  0  0  0  0
    0.2079    1.8260    0.0000 N   0  0  0  0  0  0  0  0  0  0  0  0
    1.0304    1.8007    0.0000 C   0  0  0  0  0  0  0  0  0  0  0  0
    1.4217    1.0733    0.0000 C   0  0  0  0  0  0  0  0  0  0  0  0
    2.2427    1.0486    0.0000 C   0  0  0  0  0  0  0  0  0  0  0  0
    2.6786    1.7495    0.0000 N   0  0  0  0  0  0  0  0  0  0  0  0
    2.2873    2.4769    0.0000 C   0  0  0  0  0  0  0  0  0  0  0  0
    1.4601    2.5034    0.0000 C   0  0  0  0  0  0  0  0  0  0  0  0
   -3.3686    2.8212    0.0000 O   0  0  0  0  0  0  0  0  0  0  0  0
   -3.4093    1.0209    0.0000 C   0  0  0  0  0  0  0  0  0  0  0  0
   -1.4024    0.5978    0.0000 C   0  0  0  0  0  0  0  0  0  0  0  0
   -1.6669   -0.1837    0.0000 C   0  0  0  0  0  0  0  0  0  0  0  0
   -1.1224   -0.8034    0.0000 C   0  0  0  0  0  0  0  0  0  0  0  0
   -1.3869   -1.5849    0.0000 C   0  0  0  0  0  0  0  0  0  0  0  0
   -4.1553    1.3731    0.0000 C   0  0  0  0  0  0  0  0  0  0  0  0
   -4.1724    2.2001    0.0000 C   0  0  0  0  0  0  0  0  0  0  0  0
   -4.8909    2.5982    0.0000 C   0  0  0  0  0  0  0  0  0  0  0  0
   -5.5995    2.1749    0.0000 C   0  0  0  0  0  0  0  0  0  0  0  0
   -5.5849    1.3491    0.0000 C   0  0  0  0  0  0  0  0  0  0  0  0
   -4.8617    0.9465    0.0000 C   0  0  0  0  0  0  0  0  0  0  0  0
    3.5032    1.7236    0.0000 C   0  0  0  0  0  0  0  0  0  0  0  0
    3.9379    2.4247    0.0000 C   0  0  0  0  0  0  0  0  0  0  0  0
    3.8930    0.9965    0.0000 O   0  0  0  0  0  0  0  0  0  0  0  0
    4.7632    2.3956    0.0000 C   0  0  0  0  0  0  0  0  0  0  0  0
    5.1979    3.0959    0.0000 C   0  0  0  0  0  0  0  0  0  0  0  0
    4.8080    3.8240    0.0000 C   0  0  0  0  0  0  0  0  0  0  0  0
    3.9791    3.8474    0.0000 C   0  0  0  0  0  0  0  0  0  0  0  0
    3.5481    3.1464    0.0000 C   0  0  0  0  0  0  0  0  0  0  0  0
    2.7235    3.1694    0.0000 C   0  0  0  0  0  0  0  0  0  0  0  0
    5.1515    1.6677    0.0000 C   0  0  0  0  0  0  0  0  0  0  0  0
  4 18  1  0
  7  1  1  0
  5 19  1  0
  1  8  1  0
 19 20  1  0
  8  9  1  0
 20 21  1  0
  9 10  1  0
 21 22  1  0
 11 12  1  0
 18 23  1  0
 23 24  1  0
  5  1  1  0
  6  7  1  0
  1  2  1  0
  2  3  1  0
 23 28  1  0
 24 25  1  0
 25 26  1  0
 26 27  1  0
 27 28  1  0
  3  4  1  0
 14 29  1  0
 11 16  1  0
 29 30  1  0
 12 13  1  0
 29 31  2  0
 13 14  1  0
 30 32  2  0
 14 15  1  0
 32 33  1  0
 15 16  1  0
 33 34  2  0
 10 11  1  0
 34 35  1  0
  4  5  1  0
 35 36  2  0
 36 30  1  0
  3 17  2  0
 36 37  1  0
  6 10  1  0
 32 38  1  0
M  END

> <chembl_id>
CHEMBL1080794

> <chembl_pref_name>
None

$$$$

     RDKit          2D

 21 23  0  0  0  0  0  0  0  0999 V2000
   -5.4060    2.6060    0.0000 S   0  0  0  0  0  0  0  0  0  0  0  0
   -0.4047   -1.1065    0.0000 O   0  0  0  0  0  0  0  0  0  0  0  0
   -0.4047    1.3685    0.0000 N   0  0  0  0  0  0  0  0  0  0  0  0
    0.3097    0.1310    0.0000 C   0  0  0  0  0  0  0  0  0  0  0  0
    0.3097    0.9560    0.0000 C   0  0  0  0  0  0  0  0  0  0  0  0
   -0.4047   -0.2815    0.0000 C   0  0  0  0  0  0  0  0  0  0  0  0
   -1.1192    0.9560    0.0000 C   0  0  0  0  0  0  0  0  0  0  0  0
   -1.1192    0.1310    0.0000 C   0  0  0  0  0  0  0  0  0  0  0  0
    1.0242   -0.2815    0.0000 C   0  0  0  0  0  0  0  0  0  0  0  0
    1.0242    1.3685    0.0000 C   0  0  0  0  0  0  0  0  0  0  0  0
   -1.8337    1.3685    0.0000 C   0  0  0  0  0  0  0  0  0  0  0  0
   -3.2626    1.3685    0.0000 C   0  0  0  0  0  0  0  0  0  0  0  0
    1.7387    0.1310    0.0000 C   0  0  0  0  0  0  0  0  0  0  0  0
   -2.5482    0.9560    0.0000 C   0  0  0  0  0  0  0  0  0  0  0  0
    1.7387    0.9560    0.0000 C   0  0  0  0  0  0  0  0  0  0  0  0
   -4.6916    2.1935    0.0000 C   0  0  0  0  0  0  0  0  0  0  0  0
   -3.9771    0.9560    0.0000 C   0  0  0  0  0  0  0  0  0  0  0  0
   -3.2626    2.1935    0.0000 C   0  0  0  0  0  0  0  0  0  0  0  0
   -4.6916    1.3685    0.0000 C   0  0  0  0  0  0  0  0  0  0  0  0
   -3.9771    2.6060    0.0000 C   0  0  0  0  0  0  0  0  0  0  0  0
   -6.1205    2.1935    0.0000 C   0  0  0  0  0  0  0  0  0  0  0  0
  1 16  1  0
  1 21  1  0
  2  6  1  0
  3  5  2  0
  3  7  1  0
  4  5  1  0
  4  6  2  0
  4  9  1  0
  5 10  1  0
  6  8  1  0
  7  8  2  0
  7 11  1  0
  9 13  2  0
 10 15  2  0
 11 14  2  0
 12 14  1  0
 12 17  2  0
 12 18  1  0
 13 15  1  0
 16 19  2  0
 16 20  1  0
 17 19  1  0
 18 20  2  0
M  END

> <chembl_id>
CHEMBL1400664

> <chembl_pref_name>
None

$$$$

     RDKit          2D

 15 16  0  0  0  0  0  0  0  0999 V2000
   -0.4410   -3.3768    0.0000 O   0  0  0  0  0  0  0  0  0  0  0  0
    0.2265   -0.4169    0.0000 O   0  0  0  0  0  0  0  0  0  0  0  0
    0.9409   -1.6544    0.0000 N   0  0  0  0  0  0  0  0  0  0  0  0
    2.3699   -0.8294    0.0000 N   0  0  0  0  0  0  0  0  0  0  0  0
    2.3699    0.8206    0.0000 N   0  0  0  0  0  0  0  0  0  0  0  0
    1.6554   -0.4169    0.0000 C   0  0  0  0  0  0  0  0  0  0  0  0
    0.9409   -0.8294    0.0000 C   0  0  0  0  0  0  0  0  0  0  0  0
    0.2265   -2.8919    0.0000 C   0  0  0  0  0  0  0  0  0  0  0  0
    1.6554    0.4081    0.0000 C   0  0  0  0  0  0  0  0  0  0  0  0
    0.2265   -2.0669    0.0000 C   0  0  0  0  0  0  0  0  0  0  0  0
    0.8939   -3.3768    0.0000 C   0  0  0  0  0  0  0  0  0  0  0  0
    3.0844   -0.4169    0.0000 C   0  0  0  0  0  0  0  0  0  0  0  0
    3.0844    0.4081    0.0000 C   0  0  0  0  0  0  0  0  0  0  0  0
   -0.1860   -4.1615    0.0000 C   0  0  0  0  0  0  0  0  0  0  0  0
    0.6390   -4.1615    0.0000 C   0  0  0  0  0  0  0  0  0  0  0  0
  1  8  1  0
  1 14  1  0
  2  7  2  0
  3  7  1  0
  3 10  1  0
  4  6  1  0
  4 12  2  0
  5  9  1  0
  5 13  2  0
  6  7  1  0
  6  9  2  0
  8 10  1  0
  8 11  2  0
 11 15  1  0
 12 13  1  0
 14 15  2  0
M  END

> <chembl_id>
CHEMBL1400696

> <chembl_pref_name>
None

$$$$

     RDKit          2D

 28 30  0  0  0  0  0  0  0  0999 V2000
    0.0708    1.5500    0.0000 Cl  0  0  0  0  0  0  0  0  0  0  0  0
    2.9881   -5.5057    0.0000 S   0  0  0  0  0  0  0  0  0  0  0  0
    1.3471   -5.6782    0.0000 O   0  0  0  0  0  0  0  0  0  0  0  0
    5.5989   -6.6681    0.0000 O   0  0  0  0  0  0  0  0  0  0  0  0
    0.7852   -2.9875    0.0000 N   0  0  0  0  0  0  0  0  0  0  0  0
    4.2935   -6.0869    0.0000 N   0  0  0  0  0  0  0  0  0  0  0  0
    4.1441   -4.6658    0.0000 N   0  0  0  0  0  0  0  0  0  0  0  0
    5.3001   -3.8259    0.0000 N   0  0  0  0  0  0  0  0  0  0  0  0
    1.1977   -4.2571    0.0000 C   0  0  0  0  0  0  0  0  0  0  0  0
    1.4527   -3.4724    0.0000 C   0  0  0  0  0  0  0  0  0  0  0  0
    0.1178   -3.4724    0.0000 C   0  0  0  0  0  0  0  0  0  0  0  0
    0.3727   -4.2571    0.0000 C   0  0  0  0  0  0  0  0  0  0  0  0
    1.6827   -4.9245    0.0000 C   0  0  0  0  0  0  0  0  0  0  0  0
    0.7852   -2.1625    0.0000 C   0  0  0  0  0  0  0  0  0  0  0  0
    2.5031   -4.8383    0.0000 C   0  0  0  0  0  0  0  0  0  0  0  0
    3.8085   -5.4195    0.0000 C   0  0  0  0  0  0  0  0  0  0  0  0
    2.2373   -3.2175    0.0000 C   0  0  0  0  0  0  0  0  0  0  0  0
   -0.6668   -3.2175    0.0000 C   0  0  0  0  0  0  0  0  0  0  0  0
    0.0708   -1.7500    0.0000 C   0  0  0  0  0  0  0  0  0  0  0  0
    5.1139   -6.0007    0.0000 C   0  0  0  0  0  0  0  0  0  0  0  0
    4.9646   -4.5796    0.0000 C   0  0  0  0  0  0  0  0  0  0  0  0
    0.0708   -0.9250    0.0000 C   0  0  0  0  0  0  0  0  0  0  0  0
    5.4495   -5.2470    0.0000 C   0  0  0  0  0  0  0  0  0  0  0  0
   -0.6437   -0.5125    0.0000 C   0  0  0  0  0  0  0  0  0  0  0  0
    0.7852   -0.5125    0.0000 C   0  0  0  0  0  0  0  0  0  0  0  0
    0.0708    0.7250    0.0000 C   0  0  0  0  0  0  0  0  0  0  0  0
   -0.6437    0.3125    0.0000 C   0  0  0  0  0  0  0  0  0  0  0  0
    0.7852    0.3125    0.0000 C   0  0  0  0  0  0  0  0  0  0  0  0
  1 26  1  0
  2 15  1  0
  2 16  1  0
  3 13  2  0
  4 20  1  0
  5 10  1  0
  5 11  1  0
  5 14  1  0
  6 16  1  0
  6 20  2  0
  7 16  2  0
  7 21  1  0
  8 21  1  0
  9 10  2  0
  9 12  1  0
  9 13  1  0
 10 17  1  0
 11 12  2  0
 11 18  1  0
 13 15  1  0
 14 19  1  0
 19 22  1  0
 20 23  1  0
 21 23  2  0
 22 24  2  0
 22 25  1  0
 24 27  1  0
 25 28  2  0
 26 27  2  0
 26 28  1  0
M  END

> <chembl_id>
CHEMBL1304064

> <chembl_pref_name>
None

$$$$

     RDKit          2D

 19 20  0  0  0  0  0  0  0  0999 V2000
   -1.4996    0.8083    0.0000 O   0  0  0  0  0  0  0  0  0  0  0  0
    1.3583    0.8083    0.0000 N   0  0  0  0  0  0  0  0  0  0  0  0
    2.2515    1.8003    0.0000 N   0  0  0  0  0  0  0  0  0  0  0  0
   -3.6430   -0.4292    0.0000 C   0  0  0  0  0  0  0  0  0  0  0  0
   -4.3575   -0.8417    0.0000 C   0  0  0  0  0  0  0  0  0  0  0  0
   -2.2141    0.3958    0.0000 C   0  0  0  0  0  0  0  0  0  0  0  0
   -3.6430    0.3958    0.0000 C   0  0  0  0  0  0  0  0  0  0  0  0
   -2.9286   -0.8417    0.0000 C   0  0  0  0  0  0  0  0  0  0  0  0
   -2.9286    0.8083    0.0000 C   0  0  0  0  0  0  0  0  0  0  0  0
   -2.2141   -0.4292    0.0000 C   0  0  0  0  0  0  0  0  0  0  0  0
    0.6438    0.3958    0.0000 C   0  0  0  0  0  0  0  0  0  0  0  0
    1.4445    1.6288    0.0000 C   0  0  0  0  0  0  0  0  0  0  0  0
    2.1119    0.4728    0.0000 C   0  0  0  0  0  0  0  0  0  0  0  0
   -5.0720   -1.2542    0.0000 C   0  0  0  0  0  0  0  0  0  0  0  0
   -4.7700   -0.1272    0.0000 C   0  0  0  0  0  0  0  0  0  0  0  0
   -3.9450   -1.5561    0.0000 C   0  0  0  0  0  0  0  0  0  0  0  0
   -0.7852    0.3958    0.0000 C   0  0  0  0  0  0  0  0  0  0  0  0
   -0.0707    0.8083    0.0000 C   0  0  0  0  0  0  0  0  0  0  0  0
    2.6640    1.0859    0.0000 C   0  0  0  0  0  0  0  0  0  0  0  0
  1  6  1  0
  1 17  1  0
  2 11  1  0
  2 12  1  0
  2 13  1  0
  3 12  2  0
  3 19  1  0
  4  5  1  0
  4  7  2  0
  4  8  1  0
  5 14  1  0
  5 15  1  0
  5 16  1  0
  6  9  2  0
  6 10  1  0
  7  9  1  0
  8 10  2  0
 11 18  1  0
 13 19  2  0
 17 18  1  0
M  END

> <chembl_id>
CHEMBL1340194

> <chembl_pref_name>
None

$$$$

     RDKit          2D

 41 44  0  0  1  0  0  0  0  0999 V2000
    1.9978    2.2468    0.0000 F   0  0  0  0  0  0  0  0  0  0  0  0
    4.8543    2.3360    0.0000 F   0  0  0  0  0  0  0  0  0  0  0  0
    1.0889    1.7106    0.0000 O   0  0  0  0  0  0  0  0  0  0  0  0
    2.6188   -0.7578    0.0000 O   0  0  0  0  0  0  0  0  0  0  0  0
   -0.1163    1.6819    0.0000 O   0  0  0  0  0  0  0  0  0  0  0  0
   -1.7655    1.6303    0.0000 O   0  0  0  0  0  0  0  0  0  0  0  0
   -1.2417   -1.9274    0.0000 O   0  0  0  0  0  0  0  0  0  0  0  0
    2.0493    0.5976    0.0000 N   0  0  0  0  0  0  0  0  0  0  0  0
   -1.6763   -1.2261    0.0000 N   0  0  0  0  0  0  0  0  0  0  0  0
    0.7529    0.2794    0.0000 C   0  0  0  0  0  0  0  0  0  0  0  0
   -0.0717    0.2536    0.0000 C   0  0  0  0  0  0  0  0  0  0  0  0
    1.1875   -0.4219    0.0000 C   0  0  0  0  0  0  0  0  0  0  0  0
    1.2855    0.9094    0.0000 C   0  0  0  0  0  0  0  0  0  0  0  0
    1.9887   -0.2252    0.0000 C   0  0  0  0  0  0  0  0  0  0  0  0
   -0.4617   -0.4734    0.0000 C   0  0  0  0  0  0  0  0  0  0  0  0
   -0.5063    0.9549    0.0000 C   0  0  0  0  0  0  0  0  0  0  0  0
    2.7505    1.0322    0.0000 C   0  0  0  0  0  0  0  0  0  0  0  0
    0.7975   -1.1489    0.0000 C   0  0  0  0  0  0  0  0  0  0  0  0
   -1.2863   -0.4991    0.0000 C   0  0  0  0  0  0  0  0  0  0  0  0
   -0.0271   -1.1746    0.0000 C   0  0  0  0  0  0  0  0  0  0  0  0
   -1.3309    0.9291    0.0000 C   0  0  0  0  0  0  0  0  0  0  0  0
   -1.7209    0.2021    0.0000 C   0  0  0  0  0  0  0  0  0  0  0  0
    2.7248    1.8568    0.0000 C   0  0  0  0  0  0  0  0  0  0  0  0
    3.4775    0.6422    0.0000 C   0  0  0  0  0  0  0  0  0  0  0  0
    3.4260    2.2914    0.0000 C   0  0  0  0  0  0  0  0  0  0  0  0
    4.1788    1.0768    0.0000 C   0  0  0  0  0  0  0  0  0  0  0  0
    4.1530    1.9014    0.0000 C   0  0  0  0  0  0  0  0  0  0  0  0
   -1.6317   -2.6544    0.0000 C   0  0  0  0  0  0  0  0  0  0  0  0
   -1.1970   -3.3556    0.0000 C   0  0  0  0  0  0  0  0  0  0  0  0
   -1.5870   -4.0826    0.0000 C   0  0  0  0  0  0  0  0  0  0  0  0
   -1.1524   -4.7839    0.0000 C   0  0  0  0  0  0  0  0  0  0  0  0
   -2.4116   -4.1084    0.0000 C   0  0  0  0  0  0  0  0  0  0  0  0
   -0.3278   -4.7581    0.0000 C   0  0  0  0  0  0  0  0  0  0  0  0
    0.1068   -5.4594    0.0000 C   0  0  0  0  0  0  0  0  0  0  0  0
    0.9314   -5.4336    0.0000 C   0  0  0  0  0  0  0  0  0  0  0  0
    1.3214   -4.7066    0.0000 C   0  0  0  0  0  0  0  0  0  0  0  0
    1.3660   -6.1348    0.0000 C   0  0  0  0  0  0  0  0  0  0  0  0
   -0.9344   -1.3546    0.0000 H   0  0  0  0  0  0  0  0  0  0  0  0
    1.8003   -1.2121    0.0000 H   0  0  0  0  0  0  0  0  0  0  0  0
    0.4010    1.1348    0.0000 H   0  0  0  0  0  0  0  0  0  0  0  0
    0.3178    1.1798    0.0000 H   0  0  0  0  0  0  0  0  0  0  0  0
  1 23  1  0
  2 27  1  0
  3 13  2  0
  4 14  2  0
 16  5  1  1
 21  6  1  1
  7  9  1  0
  7 28  1  0
  8 13  1  0
  8 14  1  0
  8 17  1  0
  9 19  2  0
 10 11  1  0
 10 12  1  0
 10 13  1  0
 11 15  1  0
 11 16  1  0
 12 14  1  0
 12 18  1  0
 15 19  1  0
 15 20  1  0
 16 21  1  0
 17 23  2  0
 17 24  1  0
 18 20  1  0
 19 22  1  0
 21 22  1  0
 23 25  1  0
 24 26  2  0
 25 27  2  0
 26 27  1  0
 28 29  1  0
 29 30  2  0
 30 31  1  0
 30 32  1  0
 31 33  1  0
 33 34  1  0
 34 35  2  0
 35 36  1  0
 35 37  1  0
 15 38  1  1
 12 39  1  1
 11 40  1  1
 10 41  1  6
M  END

> <chembl_id>
CHEMBL1400594

> <chembl_pref_name>
None

$$$$

     RDKit          2D

 28 30  0  0  0  0  0  0  0  0999 V2000
   21.6088    0.3051    0.0000 C   0  0  0  0  0  0  0  0  0  0  0  0
   22.3250   -0.1043    0.0000 O   0  0  0  0  0  0  0  0  0  0  0  0
   21.6052    1.1301    0.0000 N   0  0  0  0  0  0  0  0  0  0  0  0
   20.8894    1.5336    0.0000 C   0  0  0  0  0  0  0  0  0  0  0  0
   20.8810    2.3586    0.0000 C   0  0  0  0  0  0  0  0  0  0  0  0
   20.1624    2.7638    0.0000 N   0  0  0  0  0  0  0  0  0  0  0  0
   20.1582    3.5858    0.0000 C   0  0  0  0  0  0  0  0  0  0  0  0
   19.4437    3.9909    0.0000 C   0  0  0  0  0  0  0  0  0  0  0  0
   18.7310    3.5746    0.0000 O   0  0  0  0  0  0  0  0  0  0  0  0
   18.7374    2.7487    0.0000 C   0  0  0  0  0  0  0  0  0  0  0  0
   19.4566    2.3391    0.0000 C   0  0  0  0  0  0  0  0  0  0  0  0
   20.8961   -0.1105    0.0000 C   0  0  0  0  0  0  0  0  0  0  0  0
   19.4689   -0.1142    0.0000 C   0  0  0  0  0  0  0  0  0  0  0  0
   19.4677   -0.9415    0.0000 C   0  0  0  0  0  0  0  0  0  0  0  0
   20.1825   -1.3544    0.0000 C   0  0  0  0  0  0  0  0  0  0  0  0
   20.8990   -0.9411    0.0000 C   0  0  0  0  0  0  0  0  0  0  0  0
   20.1807    0.2986    0.0000 C   0  0  0  0  0  0  0  0  0  0  0  0
   18.7529   -1.3535    0.0000 N   0  0  0  0  0  0  0  0  0  0  0  0
   18.0388   -0.9404    0.0000 C   0  0  0  0  0  0  0  0  0  0  0  0
   17.3240   -1.3523    0.0000 N   0  0  0  0  0  0  0  0  0  0  0  0
   18.0394   -0.1154    0.0000 O   0  0  0  0  0  0  0  0  0  0  0  0
   16.6098   -0.9393    0.0000 C   0  0  0  0  0  0  0  0  0  0  0  0
   16.6148   -0.1150    0.0000 C   0  0  0  0  0  0  0  0  0  0  0  0
   15.9015    0.2980    0.0000 C   0  0  0  0  0  0  0  0  0  0  0  0
   15.1857   -0.1140    0.0000 C   0  0  0  0  0  0  0  0  0  0  0  0
   15.1877   -0.9432    0.0000 C   0  0  0  0  0  0  0  0  0  0  0  0
   15.9016   -1.3525    0.0000 C   0  0  0  0  0  0  0  0  0  0  0  0
   14.4710    0.2982    0.0000 Cl  0  0  0  0  0  0  0  0  0  0  0  0
  3  4  1  0
 14 15  1  0
 15 16  2  0
 16 12  1  0
  4  5  1  0
 12 17  2  0
 17 13  1  0
  1  3  1  0
 14 18  1  0
  6 11  1  0
 18 19  1  0
  7  8  1  0
 19 20  1  0
  8  9  1  0
 19 21  2  0
  9 10  1  0
 20 22  1  0
 10 11  1  0
 22 23  2  0
  5  6  1  0
 23 24  1  0
  1 12  1  0
 24 25  2  0
  6  7  1  0
 25 26  1  0
  1  2  2  0
 26 27  2  0
 27 22  1  0
 13 14  2  0
 25 28  1  0
M  END

> <chembl_id>
CHEMBL1086694

> <chembl_pref_name>
None

$$$$

     RDKit          2D

 72 78  0  0  0  0  0  0  0  0999 V2000
   11.2354   -1.0084    0.0000 C   0  0  0  0  0  0  0  0  0  0  0  0
   11.9485   -2.2465    0.0000 O   0  0  0  0  0  0  0  0  0  0  0  0
   11.9485   -1.4193    0.0000 C   0  0  0  0  0  0  0  0  0  0  0  0
   11.2354   -0.1837    0.0000 C   0  0  0  0  0  0  0  0  0  0  0  0
   11.9442    1.0554    0.0000 C   0  0  0  0  0  0  0  0  0  0  0  0
   11.9472    0.2264    0.0000 C   0  0  0  0  0  0  0  0  0  0  0  0
   12.6601   -0.1810    0.0000 C   0  0  0  0  0  0  0  0  0  0  0  0
   13.3771    0.2316    0.0000 C   0  0  0  0  0  0  0  0  0  0  0  0
   13.3751    1.0547    0.0000 C   0  0  0  0  0  0  0  0  0  0  0  0
   12.6611    1.4680    0.0000 C   0  0  0  0  0  0  0  0  0  0  0  0
   13.3795   -1.4221    0.0000 C   0  0  0  0  0  0  0  0  0  0  0  0
   14.0988   -0.1854    0.0000 O   0  0  0  0  0  0  0  0  0  0  0  0
   14.0988   -1.0100    0.0000 C   0  0  0  0  0  0  0  0  0  0  0  0
   13.3795   -2.2469    0.0000 C   0  0  0  0  0  0  0  0  0  0  0  0
   14.0992   -2.6591    0.0000 C   0  0  0  0  0  0  0  0  0  0  0  0
   14.0992   -3.4832    0.0000 O   0  0  0  0  0  0  0  0  0  0  0  0
   15.5261   -1.0098    0.0000 C   0  0  0  0  0  0  0  0  0  0  0  0
   16.2374   -2.2478    0.0000 O   0  0  0  0  0  0  0  0  0  0  0  0
   16.2374   -1.4239    0.0000 C   0  0  0  0  0  0  0  0  0  0  0  0
   15.5261   -0.1849    0.0000 C   0  0  0  0  0  0  0  0  0  0  0  0
   16.2384    1.0542    0.0000 C   0  0  0  0  0  0  0  0  0  0  0  0
   16.2374    0.2291    0.0000 C   0  0  0  0  0  0  0  0  0  0  0  0
   16.9543   -0.1822    0.0000 C   0  0  0  0  0  0  0  0  0  0  0  0
   17.6671    0.2304    0.0000 C   0  0  0  0  0  0  0  0  0  0  0  0
   17.6655    1.0569    0.0000 C   0  0  0  0  0  0  0  0  0  0  0  0
   16.9512    1.4667    0.0000 C   0  0  0  0  0  0  0  0  0  0  0  0
   17.6665   -1.4280    0.0000 C   0  0  0  0  0  0  0  0  0  0  0  0
   18.3824   -0.1862    0.0000 O   0  0  0  0  0  0  0  0  0  0  0  0
   18.3824   -1.0154    0.0000 C   0  0  0  0  0  0  0  0  0  0  0  0
   17.6665   -2.2517    0.0000 C   0  0  0  0  0  0  0  0  0  0  0  0
   18.3855   -3.4882    0.0000 C   0  0  0  0  0  0  0  0  0  0  0  0
   18.3824   -2.6643    0.0000 C   0  0  0  0  0  0  0  0  0  0  0  0
   19.0967   -2.2490    0.0000 C   0  0  0  0  0  0  0  0  0  0  0  0
   19.8112   -2.6630    0.0000 C   0  0  0  0  0  0  0  0  0  0  0  0
   19.8132   -3.4848    0.0000 C   0  0  0  0  0  0  0  0  0  0  0  0
   19.0999   -3.8980    0.0000 C   0  0  0  0  0  0  0  0  0  0  0  0
   19.8154   -1.0164    0.0000 C   0  0  0  0  0  0  0  0  0  0  0  0
   20.5266   -2.2501    0.0000 O   0  0  0  0  0  0  0  0  0  0  0  0
   20.5266   -1.4263    0.0000 C   0  0  0  0  0  0  0  0  0  0  0  0
   19.8154   -0.1914    0.0000 C   0  0  0  0  0  0  0  0  0  0  0  0
   21.1937   -0.2628    0.0000 C   0  0  0  0  0  0  0  0  0  0  0  0
   20.5264    0.2225    0.0000 C   0  0  0  0  0  0  0  0  0  0  0  0
   20.7850    1.0081    0.0000 C   0  0  0  0  0  0  0  0  0  0  0  0
   21.6066    1.0067    0.0000 C   0  0  0  0  0  0  0  0  0  0  0  0
   22.0220    1.7172    0.0000 C   0  0  0  0  0  0  0  0  0  0  0  0
   21.6126    2.4341    0.0000 C   0  0  0  0  0  0  0  0  0  0  0  0
   20.7869    2.4364    0.0000 C   0  0  0  0  0  0  0  0  0  0  0  0
   20.3756    1.7250    0.0000 C   0  0  0  0  0  0  0  0  0  0  0  0
   21.9518   -1.4320    0.0000 C   0  0  0  0  0  0  0  0  0  0  0  0
   22.6678   -0.1902    0.0000 O   0  0  0  0  0  0  0  0  0  0  0  0
   22.6678   -1.0153    0.0000 C   0  0  0  0  0  0  0  0  0  0  0  0
   21.9518   -2.2558    0.0000 C   0  0  0  0  0  0  0  0  0  0  0  0
   23.3435   -2.1856    0.0000 C   0  0  0  0  0  0  0  0  0  0  0  0
   22.6680   -2.6682    0.0000 C   0  0  0  0  0  0  0  0  0  0  0  0
   22.9142   -3.4520    0.0000 C   0  0  0  0  0  0  0  0  0  0  0  0
   23.7440   -3.4596    0.0000 C   0  0  0  0  0  0  0  0  0  0  0  0
   24.1469   -4.1803    0.0000 C   0  0  0  0  0  0  0  0  0  0  0  0
   23.7274   -4.8877    0.0000 C   0  0  0  0  0  0  0  0  0  0  0  0
   22.9019   -4.8794    0.0000 C   0  0  0  0  0  0  0  0  0  0  0  0
   22.4957   -4.1635    0.0000 C   0  0  0  0  0  0  0  0  0  0  0  0
   10.5204   -1.4205    0.0000 N   0  0  0  0  0  0  0  0  0  0  0  0
   14.0892    1.4699    0.0000 O   0  0  0  0  0  0  0  0  0  0  0  0
   12.6648   -1.0101    0.0000 N   0  0  0  0  0  0  0  0  0  0  0  0
   14.8145   -2.2464    0.0000 O   0  0  0  0  0  0  0  0  0  0  0  0
   14.8125   -1.4239    0.0000 N   0  0  0  0  0  0  0  0  0  0  0  0
   16.9531   -1.0136    0.0000 N   0  0  0  0  0  0  0  0  0  0  0  0
   20.5311   -3.8994    0.0000 O   0  0  0  0  0  0  0  0  0  0  0  0
   19.0986   -1.4249    0.0000 N   0  0  0  0  0  0  0  0  0  0  0  0
   21.8612    0.2220    0.0000 N   0  0  0  0  0  0  0  0  0  0  0  0
   21.2409   -1.0134    0.0000 N   0  0  0  0  0  0  0  0  0  0  0  0
   24.0059   -2.6773    0.0000 N   0  0  0  0  0  0  0  0  0  0  0  0
   23.3831   -1.4293    0.0000 O   0  0  0  0  0  0  0  0  0  0  0  0
  5  6  2  0
  6  7  1  0
  7  8  2  0
  8  9  1  0
  9 10  2  0
 10  5  1  0
 11 13  1  0
 13 12  2  0
 11 14  1  6
 14 15  1  0
 15 16  2  0
 17 19  1  0
 19 18  2  0
 17 20  1  1
 20 22  1  0
 21 22  2  0
 22 23  1  0
 23 24  2  0
 24 25  1  0
 25 26  2  0
 26 21  1  0
 27 29  1  0
 29 28  2  0
 27 30  1  6
 30 32  1  0
 31 32  2  0
 32 33  1  0
 33 34  2  0
 34 35  1  0
 35 36  2  0
 36 31  1  0
 37 39  1  0
 39 38  2  0
 37 40  1  1
 40 42  1  0
 41 42  2  0
 42 43  1  0
 43 44  2  0
 44 45  1  0
 45 46  2  0
 46 47  1  0
 47 48  2  0
 48 43  1  0
 49 51  1  0
 51 50  2  0
 49 52  1  6
 52 54  1  0
 53 54  2  0
 54 55  1  0
 55 56  2  0
 56 57  1  0
 57 58  2  0
 58 59  1  0
 59 60  2  0
 60 55  1  0
  1  3  1  0
  3  2  2  0
  1  4  1  1
  4  6  1  0
 66 27  1  0
 19 66  1  0
 63 11  1  0
  3 63  1  0
 35 67  1  0
 68 37  1  0
 29 68  1  0
 15 64  1  0
 69 41  1  0
 44 69  1  0
  9 62  1  0
 70 49  1  0
 39 70  1  0
 65 17  1  0
 13 65  1  0
 71 53  1  0
 56 71  1  0
 61  1  1  0
 51 72  1  0
M  END

> <chembl_id>
CHEMBL1240684

> <chembl_pref_name>
None

$$$$

     RDKit          2D

 35 36  0  0  0  0  0  0  0  0999 V2000
    8.4319   -6.2775    0.0000 Cl  0  0  0  0  0  0  0  0  0  0  0  0
    6.0709   -8.2571    0.0000 N   0  0  0  0  0  0  0  0  0  0  0  0
    6.7805   -7.8477    0.0000 C   0  0  0  0  0  0  0  0  0  0  0  0
    6.7777   -7.0250    0.0000 N   0  0  0  0  0  0  0  0  0  0  0  0
    6.0691   -6.6198    0.0000 C   0  0  0  0  0  0  0  0  0  0  0  0
    5.3628   -7.8482    0.0000 C   0  0  0  0  0  0  0  0  0  0  0  0
    5.3651   -7.0304    0.0000 C   0  0  0  0  0  0  0  0  0  0  0  0
    4.6592   -6.6213    0.0000 C   0  0  0  0  0  0  0  0  0  0  0  0
    3.9505   -7.0289    0.0000 C   0  0  0  0  0  0  0  0  0  0  0  0
    3.9522   -7.8498    0.0000 C   0  0  0  0  0  0  0  0  0  0  0  0
    4.6587   -8.2552    0.0000 C   0  0  0  0  0  0  0  0  0  0  0  0
    6.0656   -5.8026    0.0000 N   0  0  0  0  0  0  0  0  0  0  0  0
    6.7715   -5.3910    0.0000 C   0  0  0  0  0  0  0  0  0  0  0  0
    7.4805   -5.7980    0.0000 C   0  0  0  0  0  0  0  0  0  0  0  0
    8.1859   -5.3870    0.0000 C   0  0  0  0  0  0  0  0  0  0  0  0
    8.1829   -4.5690    0.0000 C   0  0  0  0  0  0  0  0  0  0  0  0
    7.4685   -4.1636    0.0000 C   0  0  0  0  0  0  0  0  0  0  0  0
    6.7659   -4.5769    0.0000 C   0  0  0  0  0  0  0  0  0  0  0  0
    3.2427   -6.6204    0.0000 O   0  0  0  0  0  0  0  0  0  0  0  0
    3.2426   -5.8032    0.0000 C   0  0  0  0  0  0  0  0  0  0  0  0
    3.2454   -8.2601    0.0000 O   0  0  0  0  0  0  0  0  0  0  0  0
    2.5368   -7.8531    0.0000 C   0  0  0  0  0  0  0  0  0  0  0  0
    6.0551   -4.1736    0.0000 N   0  0  0  0  0  0  0  0  0  0  0  0
    6.0490   -3.3565    0.0000 C   0  0  0  0  0  0  0  0  0  0  0  0
    5.3505   -4.5875    0.0000 C   0  0  0  0  0  0  0  0  0  0  0  0
    4.6398   -4.1843    0.0000 C   0  0  0  0  0  0  0  0  0  0  0  0
    3.9352   -4.5982    0.0000 Cl  0  0  0  0  0  0  0  0  0  0  0  0
    6.7536   -2.9429    0.0000 C   0  0  0  0  0  0  0  0  0  0  0  0
    6.7478   -2.1336    0.0000 Cl  0  0  0  0  0  0  0  0  0  0  0  0
    2.5348   -5.3948    0.0000 C   0  0  0  0  0  0  0  0  0  0  0  0
    2.5346   -4.5776    0.0000 O   0  0  0  0  0  0  0  0  0  0  0  0
    1.8269   -4.1691    0.0000 C   0  0  0  0  0  0  0  0  0  0  0  0
    2.5348   -7.0360    0.0000 C   0  0  0  0  0  0  0  0  0  0  0  0
    1.8261   -6.6290    0.0000 O   0  0  0  0  0  0  0  0  0  0  0  0
    1.8242   -5.8119    0.0000 C   0  0  0  0  0  0  0  0  0  0  0  0
  6  2  1  0
  2  3  2  0
  3  4  1  0
  4  5  2  0
  5  7  1  0
  6  7  1  0
  7  8  2  0
  8  9  1  0
  9 10  2  0
 10 11  1  0
 11  6  2  0
  5 12  1  0
 12 13  1  0
 13 14  2  0
 14 15  1  0
 15 16  2  0
 16 17  1  0
 17 18  2  0
 18 13  1  0
  9 19  1  0
 19 20  1  0
 10 21  1  0
 21 22  1  0
 18 23  1  0
 23 24  1  0
 23 25  1  0
 25 26  1  0
 26 27  1  0
 24 28  1  0
 28 29  1  0
 20 30  1  0
 30 31  1  0
 31 32  1  0
 22 33  1  0
 33 34  1  0
 34 35  1  0
M  END

> <chembl_id>
CHEMBL2417869

> <chembl_pref_name>
None

$$$$

     RDKit          2D

 19 21  0  0  0  0  0  0  0  0999 V2000
   20.0854  -22.6633    0.0000 C   0  0  0  0  0  0  0  0  0  0  0  0
   20.9104  -22.6645    0.0000 C   0  0  0  0  0  0  0  0  0  0  0  0
   21.3221  -21.9518    0.0000 C   0  0  0  0  0  0  0  0  0  0  0  0
   20.9099  -21.2373    0.0000 C   0  0  0  0  0  0  0  0  0  0  0  0
   20.0818  -21.2402    0.0000 C   0  0  0  0  0  0  0  0  0  0  0  0
   19.6738  -21.9536    0.0000 C   0  0  0  0  0  0  0  0  0  0  0  0
   18.8470  -21.9560    0.0000 S   0  0  0  0  0  0  0  0  0  0  0  0
   18.4315  -21.2412    0.0000 C   0  0  0  0  0  0  0  0  0  0  0  0
   18.4277  -22.6661    0.0000 O   0  0  0  0  0  0  0  0  0  0  0  0
   19.0583  -22.7496    0.0000 O   0  0  0  0  0  0  0  0  0  0  0  0
   22.1489  -21.9520    0.0000 N   0  0  0  0  0  0  0  0  0  0  0  0
   22.6392  -22.6203    0.0000 C   0  0  0  0  0  0  0  0  0  0  0  0
   23.4256  -22.3650    0.0000 C   0  0  0  0  0  0  0  0  0  0  0  0
   22.6396  -21.2824    0.0000 C   0  0  0  0  0  0  0  0  0  0  0  0
   23.4238  -21.5400    0.0000 C   0  0  0  0  0  0  0  0  0  0  0  0
   24.0368  -20.9901    0.0000 C   0  0  0  0  0  0  0  0  0  0  0  0
   23.8668  -20.1825    0.0000 C   0  0  0  0  0  0  0  0  0  0  0  0
   23.0784  -19.9279    0.0000 C   0  0  0  0  0  0  0  0  0  0  0  0
   22.4687  -20.4795    0.0000 C   0  0  0  0  0  0  0  0  0  0  0  0
  4  5  1  0
  7 10  2  0
  2  3  1  0
  3 11  1  0
  5  6  2  0
 12 13  2  0
  6  1  1  0
 11 12  1  0
 13 15  1  0
 14 11  1  0
  1  2  2  0
  6  7  1  0
 14 15  2  0
  3  4  2  0
 15 16  1  0
  7  8  1  0
 16 17  2  0
 17 18  1  0
  7  9  2  0
 18 19  2  0
 19 14  1  0
M  END

> <chembl_id>
CHEMBL1240964

> <chembl_pref_name>
None

$$$$

     RDKit          2D

 31 34  0  0  0  0  0  0  0  0999 V2000
   -1.2879    0.0498    0.0000 O   0  0  0  0  0  0  0  0  0  0  0  0
   -3.3842    3.0098    0.0000 O   0  0  0  0  0  0  0  0  0  0  0  0
   -6.5827   -5.3206    0.0000 O   0  0  0  0  0  0  0  0  0  0  0  0
   -5.4635   -2.5646    0.0000 O   0  0  0  0  0  0  0  0  0  0  0  0
   -2.6227    0.0498    0.0000 N   0  0  0  0  0  0  0  0  0  0  0  0
   -1.5428   -0.7348    0.0000 N   0  0  0  0  0  0  0  0  0  0  0  0
   -4.3075   -3.4045    0.0000 N   0  0  0  0  0  0  0  0  0  0  0  0
   -2.3678   -0.7348    0.0000 C   0  0  0  0  0  0  0  0  0  0  0  0
   -1.9553    0.5348    0.0000 C   0  0  0  0  0  0  0  0  0  0  0  0
   -2.8527   -1.4022    0.0000 C   0  0  0  0  0  0  0  0  0  0  0  0
   -1.9553    1.3598    0.0000 C   0  0  0  0  0  0  0  0  0  0  0  0
   -2.5172   -2.1559    0.0000 C   0  0  0  0  0  0  0  0  0  0  0  0
   -3.6732   -1.3160    0.0000 C   0  0  0  0  0  0  0  0  0  0  0  0
   -2.6698    1.7723    0.0000 C   0  0  0  0  0  0  0  0  0  0  0  0
   -3.8226   -2.7371    0.0000 C   0  0  0  0  0  0  0  0  0  0  0  0
   -1.2408    1.7723    0.0000 C   0  0  0  0  0  0  0  0  0  0  0  0
   -2.6698    2.5973    0.0000 C   0  0  0  0  0  0  0  0  0  0  0  0
   -3.0021   -2.8233    0.0000 C   0  0  0  0  0  0  0  0  0  0  0  0
   -4.1581   -1.9834    0.0000 C   0  0  0  0  0  0  0  0  0  0  0  0
   -6.4334   -3.8995    0.0000 C   0  0  0  0  0  0  0  0  0  0  0  0
   -5.1280   -3.3183    0.0000 C   0  0  0  0  0  0  0  0  0  0  0  0
   -1.2408    2.5973    0.0000 C   0  0  0  0  0  0  0  0  0  0  0  0
   -1.9553    3.0098    0.0000 C   0  0  0  0  0  0  0  0  0  0  0  0
   -6.9183   -4.5669    0.0000 C   0  0  0  0  0  0  0  0  0  0  0  0
   -5.6129   -3.9857    0.0000 C   0  0  0  0  0  0  0  0  0  0  0  0
   -6.7689   -3.1458    0.0000 C   0  0  0  0  0  0  0  0  0  0  0  0
   -7.7388   -4.4807    0.0000 C   0  0  0  0  0  0  0  0  0  0  0  0
   -7.5894   -3.0596    0.0000 C   0  0  0  0  0  0  0  0  0  0  0  0
   -8.0743   -3.7270    0.0000 C   0  0  0  0  0  0  0  0  0  0  0  0
   -4.0987    2.5973    0.0000 C   0  0  0  0  0  0  0  0  0  0  0  0
   -7.0677   -5.9881    0.0000 C   0  0  0  0  0  0  0  0  0  0  0  0
  1  6  1  0
  1  9  1  0
  2 17  1  0
  2 30  1  0
  3 24  1  0
  3 31  1  0
  4 21  2  0
  5  8  1  0
  5  9  2  0
  6  8  2  0
  7 15  1  0
  7 21  1  0
  8 10  1  0
  9 11  1  0
 10 12  2  0
 10 13  1  0
 11 14  2  0
 11 16  1  0
 12 18  1  0
 13 19  2  0
 14 17  1  0
 15 18  2  0
 15 19  1  0
 16 22  2  0
 17 23  2  0
 20 24  1  0
 20 25  1  0
 20 26  2  0
 21 25  1  0
 22 23  1  0
 24 27  2  0
 26 28  1  0
 27 29  1  0
 28 29  2  0
M  END

> <chembl_id>
CHEMBL1404069

> <chembl_pref_name>
None

$$$$

     RDKit          2D

 37 41  0  0  1  0  0  0  0  0999 V2000
    4.3256   -1.3096    0.0000 O   0  0  0  0  0  0  0  0  0  0  0  0
    3.5006    0.1193    0.0000 O   0  0  0  0  0  0  0  0  0  0  0  0
    3.8454   -3.2359    0.0000 O   0  0  0  0  0  0  0  0  0  0  0  0
   -3.0994   -2.7385    0.0000 O   0  0  0  0  0  0  0  0  0  0  0  0
    1.0256   -1.3096    0.0000 C   0  0  0  0  0  0  0  0  0  0  0  0
    0.6131   -2.0241    0.0000 C   0  0  0  0  0  0  0  0  0  0  0  0
    1.8506   -1.3096    0.0000 C   0  0  0  0  0  0  0  0  0  0  0  0
   -0.2119   -2.0241    0.0000 C   0  0  0  0  0  0  0  0  0  0  0  0
    2.2631   -2.0241    0.0000 C   0  0  0  0  0  0  0  0  0  0  0  0
   -0.6244   -1.3096    0.0000 C   0  0  0  0  0  0  0  0  0  0  0  0
   -1.4494   -1.3096    0.0000 C   0  0  0  0  0  0  0  0  0  0  0  0
    3.0881   -2.0241    0.0000 C   0  0  0  0  0  0  0  0  0  0  0  0
    1.0256   -2.7385    0.0000 C   0  0  0  0  0  0  0  0  0  0  0  0
   -1.8619   -2.0241    0.0000 C   0  0  0  0  0  0  0  0  0  0  0  0
    0.6131   -0.5951    0.0000 C   0  0  0  0  0  0  0  0  0  0  0  0
    1.8506   -2.7385    0.0000 C   0  0  0  0  0  0  0  0  0  0  0  0
    2.2631   -0.5951    0.0000 C   0  0  0  0  0  0  0  0  0  0  0  0
   -0.2119   -0.5951    0.0000 C   0  0  0  0  0  0  0  0  0  0  0  0
   -0.6244   -2.7385    0.0000 C   0  0  0  0  0  0  0  0  0  0  0  0
    3.5006   -1.3096    0.0000 C   0  0  0  0  0  0  0  0  0  0  0  0
    3.0881   -0.5951    0.0000 C   0  0  0  0  0  0  0  0  0  0  0  0
    0.2006   -2.7385    0.0000 C   0  0  0  0  0  0  0  0  0  0  0  0
   -1.8619   -0.5951    0.0000 C   0  0  0  0  0  0  0  0  0  0  0  0
    1.4381   -0.5951    0.0000 C   0  0  0  0  0  0  0  0  0  0  0  0
   -1.4494   -2.7385    0.0000 C   0  0  0  0  0  0  0  0  0  0  0  0
   -0.2981   -2.8446    0.0000 C   0  0  0  0  0  0  0  0  0  0  0  0
    3.1169   -2.8486    0.0000 C   0  0  0  0  0  0  0  0  0  0  0  0
   -2.6869   -2.0241    0.0000 C   0  0  0  0  0  0  0  0  0  0  0  0
    3.7878   -2.4613    0.0000 C   0  0  0  0  0  0  0  0  0  0  0  0
   -2.6869   -0.5951    0.0000 C   0  0  0  0  0  0  0  0  0  0  0  0
   -2.2744   -2.7385    0.0000 C   0  0  0  0  0  0  0  0  0  0  0  0
   -3.0994   -1.3096    0.0000 C   0  0  0  0  0  0  0  0  0  0  0  0
   -1.4494    0.1193    0.0000 C   0  0  0  0  0  0  0  0  0  0  0  0
   -3.0994    0.1193    0.0000 C   0  0  0  0  0  0  0  0  0  0  0  0
    1.1689   -0.4971    0.0000 H   0  0  0  0  0  0  0  0  0  0  0  0
    2.6756   -2.7385    0.0000 H   0  0  0  0  0  0  0  0  0  0  0  0
   -1.0369   -0.5951    0.0000 H   0  0  0  0  0  0  0  0  0  0  0  0
 20  1  1  6
 21  2  1  1
  3 27  1  0
  4 31  2  0
  5  6  1  0
  5  7  1  0
  5 15  1  0
  5 35  1  1
  6  8  1  0
  6 13  1  0
  6 22  1  6
  7  9  1  0
  7 17  1  0
  7 24  1  6
  8 10  1  0
  8 19  1  0
  8 26  1  1
  9 12  1  0
  9 16  1  0
  9 36  1  1
 11 10  1  0
 10 18  2  0
 11 14  1  0
 11 23  1  0
 11 37  1  6
 12 20  1  0
 12 27  1  0
 12 29  1  6
 13 16  1  0
 14 25  1  0
 14 28  1  0
 14 31  1  6
 15 18  1  0
 17 21  1  0
 19 25  1  0
 20 21  1  0
 23 30  1  0
 23 33  1  6
 28 32  1  0
 30 32  1  0
 30 34  1  1
M  END

> <chembl_id>
CHEMBL1440634

> <chembl_pref_name>
None

$$$$

     RDKit          2D

 30 33  0  0  0  0  0  0  0  0999 V2000
   -4.8400  -13.8462    0.0000 C   0  0  0  0  0  0  0  0  0  0  0  0
   -4.8400  -14.6758    0.0000 C   0  0  0  0  0  0  0  0  0  0  0  0
   -4.1255  -15.0883    0.0000 C   0  0  0  0  0  0  0  0  0  0  0  0
   -4.1255  -13.4291    0.0000 C   0  0  0  0  0  0  0  0  0  0  0  0
   -3.4065  -13.8462    0.0000 C   0  0  0  0  0  0  0  0  0  0  0  0
   -3.4100  -14.6758    0.0000 C   0  0  0  0  0  0  0  0  0  0  0  0
   -2.6973  -15.0913    0.0000 N   0  0  0  0  0  0  0  0  0  0  0  0
   -1.9765  -14.6819    0.0000 C   0  0  0  0  0  0  0  0  0  0  0  0
   -1.9730  -13.8523    0.0000 N   0  0  0  0  0  0  0  0  0  0  0  0
   -2.6903  -13.4322    0.0000 C   0  0  0  0  0  0  0  0  0  0  0  0
   -2.6878  -12.6072    0.0000 O   0  0  0  0  0  0  0  0  0  0  0  0
   -1.2563  -13.4436    0.0000 C   0  0  0  0  0  0  0  0  0  0  0  0
   -0.5441  -13.8598    0.0000 C   0  0  0  0  0  0  0  0  0  0  0  0
    0.1726  -13.4511    0.0000 C   0  0  0  0  0  0  0  0  0  0  0  0
    0.8802  -13.8710    0.0000 C   0  0  0  0  0  0  0  0  0  0  0  0
    1.5963  -13.4629    0.0000 C   0  0  0  0  0  0  0  0  0  0  0  0
    1.6012  -12.6371    0.0000 C   0  0  0  0  0  0  0  0  0  0  0  0
    0.8838  -12.2210    0.0000 C   0  0  0  0  0  0  0  0  0  0  0  0
    0.1706  -12.6314    0.0000 C   0  0  0  0  0  0  0  0  0  0  0  0
   -1.2643  -15.0983    0.0000 C   0  0  0  0  0  0  0  0  0  0  0  0
   -1.2724  -15.9235    0.0000 C   0  0  0  0  0  0  0  0  0  0  0  0
   -0.5611  -16.3400    0.0000 C   0  0  0  0  0  0  0  0  0  0  0  0
    0.1567  -15.9315    0.0000 C   0  0  0  0  0  0  0  0  0  0  0  0
    0.1587  -15.1022    0.0000 C   0  0  0  0  0  0  0  0  0  0  0  0
   -0.5532  -14.6896    0.0000 C   0  0  0  0  0  0  0  0  0  0  0  0
   -1.9901  -16.3304    0.0000 O   0  0  0  0  0  0  0  0  0  0  0  0
    0.8730  -14.6959    0.0000 F   0  0  0  0  0  0  0  0  0  0  0  0
   -5.5554  -13.4355    0.0000 C   0  0  0  0  0  0  0  0  0  0  0  0
   -5.5574  -12.6105    0.0000 C   0  0  0  0  0  0  0  0  0  0  0  0
   -5.5544  -15.0883    0.0000 C   0  0  0  0  0  0  0  0  0  0  0  0
  2  3  2  0
 14 15  2  0
  3  6  1  0
 15 16  1  0
  5  4  1  0
 16 17  2  0
  5 10  1  0
 17 18  1  0
  6  7  1  0
 18 19  2  0
 19 14  1  0
  7  8  2  0
  8 20  1  0
  8  9  1  0
 20 21  2  0
  9 10  1  0
 21 22  1  0
  5  6  2  0
 22 23  2  0
 10 11  2  0
 23 24  1  0
 24 25  2  0
 25 20  1  0
  9 12  1  0
 21 26  1  0
  1  2  1  0
 15 27  1  0
 12 13  1  0
  1 28  1  0
  1  4  2  0
 28 29  1  0
 13 14  1  0
  2 30  1  0
M  END

> <chembl_id>
CHEMBL1083694

> <chembl_pref_name>
None

$$$$

     RDKit          2D

 34 35  0  0  0  0  0  0  0  0999 V2000
    9.4426    0.7145    0.0000 O   0  0  0  0  0  0  0  0  0  0  0  0
    7.7926   -0.7145    0.0000 O   0  0  0  0  0  0  0  0  0  0  0  0
    9.4426   -0.7145    0.0000 O   0  0  0  0  0  0  0  0  0  0  0  0
    7.7926    0.7145    0.0000 O   0  0  0  0  0  0  0  0  0  0  0  0
    9.0301    0.0000    0.0000 C   0  0  0  0  0  0  0  0  0  0  0  0
    8.2051    0.0000    0.0000 C   0  0  0  0  0  0  0  0  0  0  0  0
   -0.0446   -1.2412    0.0000 Cl  0  0  0  0  0  0  0  0  0  0  0  0
    5.6712   -1.2412    0.0000 Cl  0  0  0  0  0  0  0  0  0  0  0  0
   -2.9025    0.4088    0.0000 S   0  0  0  0  0  0  0  0  0  0  0  0
   -2.4900    1.1232    0.0000 O   0  0  0  0  0  0  0  0  0  0  0  0
   -3.3150   -0.3057    0.0000 O   0  0  0  0  0  0  0  0  0  0  0  0
    0.6699   -0.8287    0.0000 O   0  0  0  0  0  0  0  0  0  0  0  0
   -3.6169    0.8213    0.0000 N   0  0  0  0  0  0  0  0  0  0  0  0
   -0.0446    0.4088    0.0000 N   0  0  0  0  0  0  0  0  0  0  0  0
    2.0988   -0.0037    0.0000 N   0  0  0  0  0  0  0  0  0  0  0  0
   -2.1880   -0.0037    0.0000 C   0  0  0  0  0  0  0  0  0  0  0  0
   -1.4735    0.4088    0.0000 C   0  0  0  0  0  0  0  0  0  0  0  0
   -0.7590   -0.0037    0.0000 C   0  0  0  0  0  0  0  0  0  0  0  0
   -2.1880   -0.8287    0.0000 C   0  0  0  0  0  0  0  0  0  0  0  0
   -0.7590   -0.8287    0.0000 C   0  0  0  0  0  0  0  0  0  0  0  0
   -4.3706    0.4857    0.0000 C   0  0  0  0  0  0  0  0  0  0  0  0
   -3.7032    1.6417    0.0000 C   0  0  0  0  0  0  0  0  0  0  0  0
   -1.4735   -1.2412    0.0000 C   0  0  0  0  0  0  0  0  0  0  0  0
   -4.9226    1.0988    0.0000 C   0  0  0  0  0  0  0  0  0  0  0  0
   -4.5101    1.8133    0.0000 C   0  0  0  0  0  0  0  0  0  0  0  0
    0.6699   -0.0037    0.0000 C   0  0  0  0  0  0  0  0  0  0  0  0
    1.3844    0.4088    0.0000 C   0  0  0  0  0  0  0  0  0  0  0  0
    3.5278   -0.0037    0.0000 C   0  0  0  0  0  0  0  0  0  0  0  0
    2.8133    0.4088    0.0000 C   0  0  0  0  0  0  0  0  0  0  0  0
    4.2423    0.4088    0.0000 C   0  0  0  0  0  0  0  0  0  0  0  0
    3.5278   -0.8287    0.0000 C   0  0  0  0  0  0  0  0  0  0  0  0
    4.9567   -0.8287    0.0000 C   0  0  0  0  0  0  0  0  0  0  0  0
    4.9567   -0.0037    0.0000 C   0  0  0  0  0  0  0  0  0  0  0  0
    4.2423   -1.2412    0.0000 C   0  0  0  0  0  0  0  0  0  0  0  0
  1  5  2  0
  2  6  2  0
  3  5  1  0
  4  6  1  0
  5  6  1  0
  7 20  1  0
  8 32  1  0
  9 10  2  0
  9 11  2  0
  9 13  1  0
  9 16  1  0
 12 26  2  0
 13 21  1  0
 13 22  1  0
 14 18  1  0
 14 26  1  0
 15 27  1  0
 15 29  1  0
 16 17  1  0
 16 19  2  0
 17 18  2  0
 18 20  1  0
 19 23  1  0
 20 23  2  0
 21 24  1  0
 22 25  1  0
 24 25  1  0
 26 27  1  0
 28 29  1  0
 28 30  2  0
 28 31  1  0
 30 33  1  0
 31 34  2  0
 32 33  2  0
 32 34  1  0
M  END

> <chembl_id>
CHEMBL1711077

> <chembl_pref_name>
None

$$$$

     RDKit          2D

 37 39  0  0  0  0  0  0  0  0999 V2000
   20.7502  -11.7418    0.0000 Cl  0  0  0  0  0  0  0  0  0  0  0  0
   17.7340   -9.6268    0.0000 S   0  0  0  0  0  0  0  0  0  0  0  0
   17.3263  -10.3440    0.0000 O   0  0  0  0  0  0  0  0  0  0  0  0
   18.1512  -10.3384    0.0000 O   0  0  0  0  0  0  0  0  0  0  0  0
   12.0399  -12.1246    0.0000 C   0  0  0  0  0  0  0  0  0  0  0  0
   12.0387  -12.9519    0.0000 C   0  0  0  0  0  0  0  0  0  0  0  0
   12.7535  -13.3648    0.0000 C   0  0  0  0  0  0  0  0  0  0  0  0
   12.7517  -11.7118    0.0000 C   0  0  0  0  0  0  0  0  0  0  0  0
   13.4670  -12.1209    0.0000 C   0  0  0  0  0  0  0  0  0  0  0  0
   13.4678  -12.9477    0.0000 C   0  0  0  0  0  0  0  0  0  0  0  0
   14.1831  -13.3587    0.0000 N   0  0  0  0  0  0  0  0  0  0  0  0
   14.1774  -11.7068    0.0000 C   0  0  0  0  0  0  0  0  0  0  0  0
   14.8933  -12.1140    0.0000 C   0  0  0  0  0  0  0  0  0  0  0  0
   14.8969  -12.9436    0.0000 C   0  0  0  0  0  0  0  0  0  0  0  0
   15.6160  -13.3535    0.0000 C   0  0  0  0  0  0  0  0  0  0  0  0
   16.3320  -12.9348    0.0000 C   0  0  0  0  0  0  0  0  0  0  0  0
   16.3244  -12.1022    0.0000 C   0  0  0  0  0  0  0  0  0  0  0  0
   15.6047  -11.6960    0.0000 C   0  0  0  0  0  0  0  0  0  0  0  0
   14.1731  -10.8818    0.0000 N   0  0  0  0  0  0  0  0  0  0  0  0
   14.8853  -10.4655    0.0000 C   0  0  0  0  0  0  0  0  0  0  0  0
   15.5973  -10.8777    0.0000 C   0  0  0  0  0  0  0  0  0  0  0  0
   16.3091  -10.4621    0.0000 C   0  0  0  0  0  0  0  0  0  0  0  0
   16.3052   -9.6362    0.0000 C   0  0  0  0  0  0  0  0  0  0  0  0
   15.5835   -9.2277    0.0000 C   0  0  0  0  0  0  0  0  0  0  0  0
   14.8747   -9.6457    0.0000 C   0  0  0  0  0  0  0  0  0  0  0  0
   17.0168   -9.2191    0.0000 N   0  0  0  0  0  0  0  0  0  0  0  0
   18.4457   -9.2096    0.0000 C   0  0  0  0  0  0  0  0  0  0  0  0
   18.4402   -8.3846    0.0000 C   0  0  0  0  0  0  0  0  0  0  0  0
   19.1520   -7.9674    0.0000 C   0  0  0  0  0  0  0  0  0  0  0  0
   19.8691   -8.3751    0.0000 C   0  0  0  0  0  0  0  0  0  0  0  0
   19.8746   -9.2001    0.0000 C   0  0  0  0  0  0  0  0  0  0  0  0
   20.5917   -9.6078    0.0000 C   0  0  0  0  0  0  0  0  0  0  0  0
   17.0539  -13.3405    0.0000 N   0  0  0  0  0  0  0  0  0  0  0  0
   17.7653  -12.9229    0.0000 O   0  0  0  0  0  0  0  0  0  0  0  0
   17.0599  -14.1655    0.0000 O   0  0  0  0  0  0  0  0  0  0  0  0
   20.5972  -10.4328    0.0000 C   0  0  0  0  0  0  0  0  0  0  0  0
   21.3144  -10.8405    0.0000 N   0  0  0  0  0  0  0  0  0  0  0  0
  3  2  2  0
  2  4  2  0
  5  6  2  0
  6  7  1  0
  7 10  2  0
  9  8  2  0
  8  5  1  0
  9 10  1  0
 10 11  1  0
 11 14  2  0
 13 12  2  0
 12  9  1  0
 13 14  1  0
 14 15  1  0
 15 16  2  0
 16 17  1  0
 17 18  2  0
 18 13  1  0
 12 19  1  0
 19 20  1  0
 20 21  2  0
 21 22  1  0
 22 23  2  0
 23 24  1  0
 24 25  2  0
 25 20  1  0
 23 26  1  0
 26  2  1  0
  2 27  1  0
 27 28  1  0
 28 29  1  0
 29 30  1  0
 30 31  1  0
 31 32  1  0
 33 34  2  0
 33 35  1  0
 16 33  1  0
 32 36  1  0
 36 37  1  0
M  CHG  2  33   1  35  -1
M  END

> <chembl_id>
CHEMBL3273949

> <chembl_pref_name>
None

$$$$

     RDKit          2D

 15 15  0  0  0  0  0  0  0  0999 V2000
    9.6645   -1.7068    0.0000 C   0  0  0  0  0  0  0  0  0  0  0  0
   10.3506   -2.1649    0.0000 N   0  0  0  0  0  0  0  0  0  0  0  0
   10.9996   -1.6554    0.0000 C   0  0  0  0  0  0  0  0  0  0  0  0
   10.7132   -0.8789    0.0000 N   0  0  0  0  0  0  0  0  0  0  0  0
    9.8899   -0.9144    0.0000 C   0  0  0  0  0  0  0  0  0  0  0  0
   10.3823   -2.9893    0.0000 C   0  0  0  0  0  0  0  0  0  0  0  0
   11.1120   -3.3740    0.0000 C   0  0  0  0  0  0  0  0  0  0  0  0
   11.1437   -4.1984    0.0000 O   0  0  0  0  0  0  0  0  0  0  0  0
   11.7933   -1.8802    0.0000 C   0  0  0  0  0  0  0  0  0  0  0  0
    8.8853   -1.9937    0.0000 N   0  0  0  0  0  0  0  0  0  0  0  0
    8.7448   -2.8067    0.0000 O   0  0  0  0  0  0  0  0  0  0  0  0
    8.2515   -1.4656    0.0000 O   0  0  0  0  0  0  0  0  0  0  0  0
   11.8735   -4.5832    0.0000 C   0  0  0  0  0  0  0  0  0  0  0  0
   11.9052   -5.4076    0.0000 C   0  0  0  0  0  0  0  0  0  0  0  0
   12.5716   -4.1435    0.0000 O   0  0  0  0  0  0  0  0  0  0  0  0
  2  3  1  0
  7  8  1  0
  3  4  2  0
  3  9  1  0
  4  5  1  0
  5  1  2  0
  1  2  1  0
 10 11  2  0
 10 12  1  0
  1 10  1  0
  2  6  1  0
  8 13  1  0
 13 14  1  0
  6  7  1  0
 13 15  2  0
M  CHG  2  10   1  12  -1
M  END

> <chembl_id>
CHEMBL1080624

> <chembl_pref_name>
None

$$$$

     RDKit          2D

 16 18  0  0  0  0  0  0  0  0999 V2000
   -0.3494    1.1189    0.0000 O   0  0  0  0  0  0  0  0  0  0  0  0
   -0.3494   -1.3561    0.0000 O   0  0  0  0  0  0  0  0  0  0  0  0
   -1.7784    1.1189    0.0000 N   0  0  0  0  0  0  0  0  0  0  0  0
    2.5085   -0.5311    0.0000 N   0  0  0  0  0  0  0  0  0  0  0  0
    0.3650   -0.1186    0.0000 C   0  0  0  0  0  0  0  0  0  0  0  0
   -1.0639   -0.1186    0.0000 C   0  0  0  0  0  0  0  0  0  0  0  0
   -0.3494   -0.5311    0.0000 C   0  0  0  0  0  0  0  0  0  0  0  0
    0.3650    0.7064    0.0000 C   0  0  0  0  0  0  0  0  0  0  0  0
   -1.0639    0.7064    0.0000 C   0  0  0  0  0  0  0  0  0  0  0  0
    1.0795   -0.5311    0.0000 C   0  0  0  0  0  0  0  0  0  0  0  0
    1.0795    1.1189    0.0000 C   0  0  0  0  0  0  0  0  0  0  0  0
   -1.7784   -0.5311    0.0000 C   0  0  0  0  0  0  0  0  0  0  0  0
    1.7940   -0.1186    0.0000 C   0  0  0  0  0  0  0  0  0  0  0  0
    1.7940    0.7064    0.0000 C   0  0  0  0  0  0  0  0  0  0  0  0
   -2.4928   -0.1186    0.0000 C   0  0  0  0  0  0  0  0  0  0  0  0
   -2.4928    0.7064    0.0000 C   0  0  0  0  0  0  0  0  0  0  0  0
  1  8  1  0
  1  9  1  0
  2  7  2  0
  3  9  2  0
  3 16  1  0
  4 13  1  0
  5  7  1  0
  5  8  1  0
  5 10  2  0
  6  7  1  0
  6  9  1  0
  6 12  2  0
  8 11  2  0
 10 13  1  0
 11 14  1  0
 12 15  1  0
 13 14  2  0
 15 16  2  0
M  END

> <chembl_id>
CHEMBL1340699

> <chembl_pref_name>
None

$$$$

     RDKit          2D

 37 40  0  0  0  0  0  0  0  0999 V2000
    1.9305    1.2411    0.0000 S   0  0  0  0  0  0  0  0  0  0  0  0
    0.7880    2.1663    0.0000 S   0  0  0  0  0  0  0  0  0  0  0  0
   -0.0538   -1.6558    0.0000 O   0  0  0  0  0  0  0  0  0  0  0  0
    2.7312   -0.8169    0.0000 O   0  0  0  0  0  0  0  0  0  0  0  0
   -1.7520    2.3659    0.0000 O   0  0  0  0  0  0  0  0  0  0  0  0
   -6.8909    2.7344    0.0000 O   0  0  0  0  0  0  0  0  0  0  0  0
   -6.3811    4.3037    0.0000 O   0  0  0  0  0  0  0  0  0  0  0  0
    0.7111    0.6981    0.0000 N   0  0  0  0  0  0  0  0  0  0  0  0
    1.0082   -0.6996    0.0000 N   0  0  0  0  0  0  0  0  0  0  0  0
    3.4457    0.4206    0.0000 N   0  0  0  0  0  0  0  0  0  0  0  0
   -2.8139    1.4097    0.0000 N   0  0  0  0  0  0  0  0  0  0  0  0
    1.2631    0.0850    0.0000 C   0  0  0  0  0  0  0  0  0  0  0  0
   -0.0959    0.5266    0.0000 C   0  0  0  0  0  0  0  0  0  0  0  0
    2.0168    0.4206    0.0000 C   0  0  0  0  0  0  0  0  0  0  0  0
   -0.3509   -0.2580    0.0000 C   0  0  0  0  0  0  0  0  0  0  0  0
    1.1236    1.4126    0.0000 C   0  0  0  0  0  0  0  0  0  0  0  0
    0.2012   -0.8711    0.0000 C   0  0  0  0  0  0  0  0  0  0  0  0
   -0.6479    1.1397    0.0000 C   0  0  0  0  0  0  0  0  0  0  0  0
    2.7312    0.0081    0.0000 C   0  0  0  0  0  0  0  0  0  0  0  0
   -1.4549    0.9681    0.0000 C   0  0  0  0  0  0  0  0  0  0  0  0
   -1.1578   -0.4296    0.0000 C   0  0  0  0  0  0  0  0  0  0  0  0
   -1.7099    0.1835    0.0000 C   0  0  0  0  0  0  0  0  0  0  0  0
   -2.0070    1.5812    0.0000 C   0  0  0  0  0  0  0  0  0  0  0  0
    4.1602    0.0081    0.0000 C   0  0  0  0  0  0  0  0  0  0  0  0
   -3.3660    2.0228    0.0000 C   0  0  0  0  0  0  0  0  0  0  0  0
   -4.7250    2.4644    0.0000 C   0  0  0  0  0  0  0  0  0  0  0  0
   -6.0840    2.9059    0.0000 C   0  0  0  0  0  0  0  0  0  0  0  0
   -4.1729    1.8513    0.0000 C   0  0  0  0  0  0  0  0  0  0  0  0
   -5.8290    3.6906    0.0000 C   0  0  0  0  0  0  0  0  0  0  0  0
   -5.5319    2.2928    0.0000 C   0  0  0  0  0  0  0  0  0  0  0  0
    4.8746    0.4206    0.0000 C   0  0  0  0  0  0  0  0  0  0  0  0
   -4.4700    3.2490    0.0000 C   0  0  0  0  0  0  0  0  0  0  0  0
   -5.0221    3.8621    0.0000 C   0  0  0  0  0  0  0  0  0  0  0  0
    5.5891    0.0081    0.0000 C   0  0  0  0  0  0  0  0  0  0  0  0
   -7.1459    1.9498    0.0000 C   0  0  0  0  0  0  0  0  0  0  0  0
   -6.1261    5.0883    0.0000 C   0  0  0  0  0  0  0  0  0  0  0  0
    6.3036    0.4206    0.0000 C   0  0  0  0  0  0  0  0  0  0  0  0
  1 14  1  0
  1 16  1  0
  2 16  2  0
  3 17  2  0
  4 19  2  0
  5 23  2  0
  6 27  1  0
  6 35  1  0
  7 29  1  0
  7 36  1  0
  8 12  1  0
  8 13  1  0
  8 16  1  0
  9 12  1  0
  9 17  1  0
 10 19  1  0
 10 24  1  0
 11 23  1  0
 11 25  1  0
 12 14  2  0
 13 15  1  0
 13 18  2  0
 14 19  1  0
 15 17  1  0
 15 21  2  0
 18 20  1  0
 20 22  2  0
 20 23  1  0
 21 22  1  0
 24 31  1  0
 25 28  1  0
 26 28  1  0
 26 30  1  0
 26 32  2  0
 27 29  1  0
 27 30  2  0
 29 33  2  0
 31 34  1  0
 32 33  1  0
 34 37  1  0
M  END

> <chembl_id>
CHEMBL1440594

> <chembl_pref_name>
None

$$$$

     RDKit          2D

 13 13  0  0  0  0  0  0  0  0999 V2000
   14.9766    1.6083    0.0000 C   0  0  0  0  0  0  0  0  0  0  0  0
   14.9755    0.7809    0.0000 C   0  0  0  0  0  0  0  0  0  0  0  0
   15.6902    0.3681    0.0000 C   0  0  0  0  0  0  0  0  0  0  0  0
   16.4066    0.7814    0.0000 C   0  0  0  0  0  0  0  0  0  0  0  0
   16.4038    1.6119    0.0000 C   0  0  0  0  0  0  0  0  0  0  0  0
   15.6884    2.0209    0.0000 C   0  0  0  0  0  0  0  0  0  0  0  0
   14.2621    2.0205    0.0000 N   0  0  0  0  0  0  0  0  0  0  0  0
   13.5478    1.6079    0.0000 C   0  0  0  0  0  0  0  0  0  0  0  0
   12.8332    2.0202    0.0000 C   0  0  0  0  0  0  0  0  0  0  0  0
   13.5480    0.7829    0.0000 O   0  0  0  0  0  0  0  0  0  0  0  0
   12.8330    2.8452    0.0000 Cl  0  0  0  0  0  0  0  0  0  0  0  0
   12.1190    1.6076    0.0000 Cl  0  0  0  0  0  0  0  0  0  0  0  0
   15.6859    2.8459    0.0000 F   0  0  0  0  0  0  0  0  0  0  0  0
  1  2  2  0
  1  7  1  0
  3  4  2  0
  7  8  1  0
  8  9  1  0
  4  5  1  0
  8 10  2  0
  2  3  1  0
  9 11  1  0
  5  6  2  0
  9 12  1  0
  6  1  1  0
  6 13  1  0
M  END

> <chembl_id>
CHEMBL1240664

> <chembl_pref_name>
None

$$$$

     RDKit          2D

 34 37  0  0  0  0  0  0  0  0999 V2000
    4.0971   -5.6353    0.0000 C   0  0  0  0  0  0  0  0  0  0  0  0
    4.8054   -4.6666    0.0000 C   0  0  0  0  0  0  0  0  0  0  0  0
    4.2010   -3.2956    0.0000 N   0  0  0  0  0  0  0  0  0  0  0  0
    4.9531   -1.9978    0.0000 C   0  0  0  0  0  0  0  0  0  0  0  0
    3.9511   -0.8815    0.0000 C   0  0  0  0  0  0  0  0  0  0  0  0
    2.5987   -1.5004    0.0000 C   0  0  0  0  0  0  0  0  0  0  0  0
    2.7343   -2.9815    0.0000 C   0  0  0  0  0  0  0  0  0  0  0  0
    1.2990   -0.7500    0.0000 C   0  0  0  0  0  0  0  0  0  0  0  0
    1.2990    0.7500    0.0000 C   0  0  0  0  0  0  0  0  0  0  0  0
    0.0000    1.5000    0.0000 C   0  0  0  0  0  0  0  0  0  0  0  0
   -1.2990    0.7500    0.0000 C   0  0  0  0  0  0  0  0  0  0  0  0
   -2.3383    1.3500    0.0000 F   0  0  0  0  0  0  0  0  0  0  0  0
   -1.2990   -0.7500    0.0000 C   0  0  0  0  0  0  0  0  0  0  0  0
    0.0000   -1.5000    0.0000 C   0  0  0  0  0  0  0  0  0  0  0  0
    0.0000   -2.7000    0.0000 F   0  0  0  0  0  0  0  0  0  0  0  0
    4.2506    0.5865    0.0000 C   0  0  0  0  0  0  0  0  0  0  0  0
    3.3521    1.3819    0.0000 O   0  0  0  0  0  0  0  0  0  0  0  0
    5.6739    1.0627    0.0000 N   0  0  0  0  0  0  0  0  0  0  0  0
    5.9760    2.5320    0.0000 C   0  0  0  0  0  0  0  0  0  0  0  0
    7.3994    3.0051    0.0000 C   0  0  0  0  0  0  0  0  0  0  0  0
    7.6410    4.1806    0.0000 C   0  0  0  0  0  0  0  0  0  0  0  0
    8.5208    2.0090    0.0000 C   0  0  0  0  0  0  0  0  0  0  0  0
    8.7346    3.1898    0.0000 O   0  0  0  0  0  0  0  0  0  0  0  0
    8.2189    0.5397    0.0000 C   0  0  0  0  0  0  0  0  0  0  0  0
    9.1161   -0.2572    0.0000 C   0  0  0  0  0  0  0  0  0  0  0  0
    6.7955    0.0666    0.0000 C   0  0  0  0  0  0  0  0  0  0  0  0
    9.8842    1.4314    0.0000 C   0  0  0  0  0  0  0  0  0  0  0  0
   10.0680   -0.0573    0.0000 C   0  0  0  0  0  0  0  0  0  0  0  0
   11.4492   -0.6424    0.0000 C   0  0  0  0  0  0  0  0  0  0  0  0
   12.6465    0.2612    0.0000 C   0  0  0  0  0  0  0  0  0  0  0  0
   13.7515   -0.2069    0.0000 F   0  0  0  0  0  0  0  0  0  0  0  0
   12.4627    1.7499    0.0000 C   0  0  0  0  0  0  0  0  0  0  0  0
   13.4205    2.4728    0.0000 F   0  0  0  0  0  0  0  0  0  0  0  0
   11.0815    2.3350    0.0000 C   0  0  0  0  0  0  0  0  0  0  0  0
  1  2  1  0
  2  3  1  0
  3  4  1  0
  4  5  1  0
  5  6  1  0
  6  7  1  0
  7  3  1  0
  6  8  1  1
  8  9  2  0
  9 10  1  0
 10 11  2  0
 11 12  1  0
 11 13  1  0
 13 14  2  0
 14  8  1  0
 14 15  1  0
  5 16  1  6
 16 17  2  0
 16 18  1  0
 18 19  1  0
 19 20  1  0
 20 21  1  1
 20 22  1  0
 22 23  1  1
 22 24  1  0
 24 25  1  1
 24 26  1  0
 26 18  1  0
 22 27  1  0
 27 28  2  0
 28 29  1  0
 29 30  2  0
 30 31  1  0
 30 32  1  0
 32 33  1  0
 32 34  2  0
 34 27  1  0
M  END

> <chembl_id>
CHEMBL1091281

> <chembl_pref_name>
None

$$$$

     RDKit          2D

 38 41  0  0  0  0  0  0  0  0999 V2000
    7.7000   -3.8792    0.0000 S   0  0  0  0  0  0  0  0  0  0  0  0
    1.2542   -2.6375    0.0000 N   0  0  0  0  0  0  0  0  0  0  0  0
    7.7042   -4.7042    0.0000 C   0  0  0  0  0  0  0  0  0  0  0  0
    0.5417   -2.2250    0.0000 C   0  0  0  0  0  0  0  0  0  0  0  0
    6.9750   -0.9875    0.0000 C   0  0  0  0  0  0  0  0  0  0  0  0
    6.9792   -3.4667    0.0000 O   0  0  0  0  0  0  0  0  0  0  0  0
    8.4125   -4.2917    0.0000 O   0  0  0  0  0  0  0  0  0  0  0  0
   -0.1708   -2.6375    0.0000 C   0  0  0  0  0  0  0  0  0  0  0  0
    4.8292   -3.8875    0.0000 C   0  0  0  0  0  0  0  0  0  0  0  0
    8.4125   -3.4542    0.0000 N   0  0  0  0  0  0  0  0  0  0  0  0
    6.9917   -5.1167    0.0000 C   0  0  0  0  0  0  0  0  0  0  0  0
    0.5417   -1.4000    0.0000 C   0  0  0  0  0  0  0  0  0  0  0  0
    6.2625   -1.4000    0.0000 C   0  0  0  0  0  0  0  0  0  0  0  0
    7.6917   -1.4000    0.0000 O   0  0  0  0  0  0  0  0  0  0  0  0
    4.1167   -3.4750    0.0000 C   0  0  0  0  0  0  0  0  0  0  0  0
    6.9750   -0.1542    0.0000 O   0  0  0  0  0  0  0  0  0  0  0  0
    1.9667   -2.2250    0.0000 C   0  0  0  0  0  0  0  0  0  0  0  0
    6.2792   -4.7042    0.0000 C   0  0  0  0  0  0  0  0  0  0  0  0
    5.5542   -3.4667    0.0000 C   0  0  0  0  0  0  0  0  0  0  0  0
    6.2750   -3.8792    0.0000 C   0  0  0  0  0  0  0  0  0  0  0  0
   -0.8875   -2.2250    0.0000 C   0  0  0  0  0  0  0  0  0  0  0  0
   -0.1708   -0.9875    0.0000 C   0  0  0  0  0  0  0  0  0  0  0  0
    1.2542   -0.9875    0.0000 C   0  0  0  0  0  0  0  0  0  0  0  0
    2.6875   -3.4750    0.0000 O   0  0  0  0  0  0  0  0  0  0  0  0
    5.5500   -2.6417    0.0000 S   0  0  0  0  0  0  0  0  0  0  0  0
    3.4000   -3.8875    0.0000 C   0  0  0  0  0  0  0  0  0  0  0  0
    6.2625   -2.2292    0.0000 C   0  0  0  0  0  0  0  0  0  0  0  0
    2.6917   -2.6417    0.0000 C   0  0  0  0  0  0  0  0  0  0  0  0
    1.9667   -1.4000    0.0000 C   0  0  0  0  0  0  0  0  0  0  0  0
   -0.8875   -1.4000    0.0000 C   0  0  0  0  0  0  0  0  0  0  0  0
   -1.6083   -2.6417    0.0000 Cl  0  0  0  0  0  0  0  0  0  0  0  0
    4.8292   -4.7167    0.0000 C   0  0  0  0  0  0  0  0  0  0  0  0
    8.4250   -5.1167    0.0000 C   0  0  0  0  0  0  0  0  0  0  0  0
    4.1125   -5.1292    0.0000 C   0  0  0  0  0  0  0  0  0  0  0  0
    6.9917   -5.9417    0.0000 C   0  0  0  0  0  0  0  0  0  0  0  0
    3.4000   -4.7167    0.0000 C   0  0  0  0  0  0  0  0  0  0  0  0
    8.4250   -5.9417    0.0000 C   0  0  0  0  0  0  0  0  0  0  0  0
    7.7042   -6.3542    0.0000 C   0  0  0  0  0  0  0  0  0  0  0  0
  2 17  2  0
  3  1  1  0
  4  2  1  0
  5 13  1  0
  6  1  2  0
  7  1  2  0
  8  4  2  0
  9 19  1  0
 10  1  1  0
 11  3  1  0
 12 23  1  0
 13 27  1  0
 14  5  1  0
 15  9  2  0
 16  5  2  0
 17 28  1  0
 18 11  1  0
 19 20  1  0
 20 18  1  0
 21  8  1  0
 22 12  2  0
 23 29  2  0
 24 26  1  0
 25 19  1  0
 26 15  1  0
 27 25  1  0
 28 24  1  0
 29 17  1  0
 30 22  1  0
 31 21  1  0
 32  9  1  0
 33  3  2  0
 34 32  2  0
 35 11  2  0
 36 34  1  0
 37 33  1  0
 38 37  2  0
 35 38  1  0
 26 36  2  0
 12  4  1  0
 30 21  2  0
M  END

> <chembl_id>
CHEMBL1204694

> <chembl_pref_name>
None

$$$$

     RDKit          2D

 20 22  0  0  0  0  0  0  0  0999 V2000
    1.6250   -1.4132    0.0000 O   0  0  0  0  0  0  0  0  0  0  0  0
    1.6250    1.4909    0.0000 O   0  0  0  0  0  0  0  0  0  0  0  0
    0.5700   -1.3901    0.0000 O   0  0  0  0  0  0  0  0  0  0  0  0
    1.3950    0.0388    0.0000 N   0  0  0  0  0  0  0  0  0  0  0  0
    3.3790   -0.7862    0.0000 N   0  0  0  0  0  0  0  0  0  0  0  0
    1.8800   -0.6286    0.0000 C   0  0  0  0  0  0  0  0  0  0  0  0
    1.8800    0.7063    0.0000 C   0  0  0  0  0  0  0  0  0  0  0  0
    2.6646   -0.3737    0.0000 C   0  0  0  0  0  0  0  0  0  0  0  0
    2.6646    0.4513    0.0000 C   0  0  0  0  0  0  0  0  0  0  0  0
    0.5700    0.0388    0.0000 C   0  0  0  0  0  0  0  0  0  0  0  0
    0.1575   -0.6757    0.0000 C   0  0  0  0  0  0  0  0  0  0  0  0
    3.3790    0.8638    0.0000 C   0  0  0  0  0  0  0  0  0  0  0  0
    0.1575    0.7533    0.0000 C   0  0  0  0  0  0  0  0  0  0  0  0
    4.0935   -0.3737    0.0000 C   0  0  0  0  0  0  0  0  0  0  0  0
    4.0935    0.4513    0.0000 C   0  0  0  0  0  0  0  0  0  0  0  0
   -0.6675   -0.6757    0.0000 C   0  0  0  0  0  0  0  0  0  0  0  0
   -0.6675    0.7533    0.0000 C   0  0  0  0  0  0  0  0  0  0  0  0
   -1.0800    0.0388    0.0000 C   0  0  0  0  0  0  0  0  0  0  0  0
    0.1575   -2.1046    0.0000 C   0  0  0  0  0  0  0  0  0  0  0  0
    0.5700   -2.8191    0.0000 C   0  0  0  0  0  0  0  0  0  0  0  0
  1  6  2  0
  2  7  2  0
  3 11  1  0
  3 19  1  0
  4  6  1  0
  4  7  1  0
  4 10  1  0
  5  8  2  0
  5 14  1  0
  6  8  1  0
  7  9  1  0
  8  9  1  0
  9 12  2  0
 10 11  1  0
 10 13  2  0
 11 16  2  0
 12 15  1  0
 13 17  1  0
 14 15  2  0
 16 18  1  0
 17 18  2  0
 19 20  1  0
M  END

> <chembl_id>
CHEMBL1406904

> <chembl_pref_name>
None

$$$$

     RDKit          2D

 25 27  0  0  0  0  0  0  0  0999 V2000
   -1.6659   -5.0780    0.0000 Cl  0  0  0  0  0  0  0  0  0  0  0  0
   -2.5238   -2.1302    0.0000 O   0  0  0  0  0  0  0  0  0  0  0  0
    0.3169   -3.5590    0.0000 O   0  0  0  0  0  0  0  0  0  0  0  0
    4.6037   -3.5590    0.0000 O   0  0  0  0  0  0  0  0  0  0  0  0
   -1.1513   -2.6571    0.0000 N   0  0  0  0  0  0  0  0  0  0  0  0
    1.0313   -2.3215    0.0000 N   0  0  0  0  0  0  0  0  0  0  0  0
    3.1747   -2.7340    0.0000 N   0  0  0  0  0  0  0  0  0  0  0  0
   -0.3976   -2.3215    0.0000 C   0  0  0  0  0  0  0  0  0  0  0  0
   -1.7033   -2.0440    0.0000 C   0  0  0  0  0  0  0  0  0  0  0  0
    0.3169   -2.7340    0.0000 C   0  0  0  0  0  0  0  0  0  0  0  0
   -1.3228   -3.4641    0.0000 C   0  0  0  0  0  0  0  0  0  0  0  0
   -0.4838   -1.5011    0.0000 C   0  0  0  0  0  0  0  0  0  0  0  0
   -2.1074   -3.7190    0.0000 C   0  0  0  0  0  0  0  0  0  0  0  0
   -1.2908   -1.3295    0.0000 C   0  0  0  0  0  0  0  0  0  0  0  0
   -2.2790   -4.5260    0.0000 C   0  0  0  0  0  0  0  0  0  0  0  0
   -2.7205   -3.1670    0.0000 C   0  0  0  0  0  0  0  0  0  0  0  0
   -3.0636   -4.7809    0.0000 C   0  0  0  0  0  0  0  0  0  0  0  0
    1.7458   -2.7340    0.0000 C   0  0  0  0  0  0  0  0  0  0  0  0
   -3.5052   -3.4219    0.0000 C   0  0  0  0  0  0  0  0  0  0  0  0
   -3.6767   -4.2289    0.0000 C   0  0  0  0  0  0  0  0  0  0  0  0
    2.4603   -2.3215    0.0000 C   0  0  0  0  0  0  0  0  0  0  0  0
    3.1747   -3.5590    0.0000 C   0  0  0  0  0  0  0  0  0  0  0  0
    3.8892   -2.3215    0.0000 C   0  0  0  0  0  0  0  0  0  0  0  0
    3.8892   -3.9715    0.0000 C   0  0  0  0  0  0  0  0  0  0  0  0
    4.6037   -2.7340    0.0000 C   0  0  0  0  0  0  0  0  0  0  0  0
  1 15  1  0
  2  9  2  0
  3 10  2  0
  4 24  1  0
  4 25  1  0
  5  8  1  0
  5  9  1  0
  5 11  1  0
  6 10  1  0
  6 18  1  0
  7 21  1  0
  7 22  1  0
  7 23  1  0
  8 10  1  0
  8 12  1  0
  9 14  1  0
 11 13  1  0
 12 14  1  0
 13 15  1  0
 13 16  2  0
 15 17  2  0
 16 19  1  0
 17 20  1  0
 18 21  1  0
 19 20  2  0
 22 24  1  0
 23 25  1  0
M  END

> <chembl_id>
CHEMBL1400693

> <chembl_pref_name>
None

$$$$

     RDKit          2D

 31 32  0  0  0  0  0  0  0  0999 V2000
    4.3099    0.2276    0.0000 Cl  0  0  0  0  0  0  0  0  0  0  0  0
    7.8823   -1.8349    0.0000 F   0  0  0  0  0  0  0  0  0  0  0  0
    7.5803   -0.7079    0.0000 F   0  0  0  0  0  0  0  0  0  0  0  0
    6.7553   -2.1368    0.0000 F   0  0  0  0  0  0  0  0  0  0  0  0
    3.5954   -0.1849    0.0000 O   0  0  0  0  0  0  0  0  0  0  0  0
    0.0231   -1.4224    0.0000 O   0  0  0  0  0  0  0  0  0  0  0  0
   -1.4059   -2.2474    0.0000 O   0  0  0  0  0  0  0  0  0  0  0  0
    0.7375   -0.1849    0.0000 O   0  0  0  0  0  0  0  0  0  0  0  0
    4.3099   -1.4224    0.0000 N   0  0  0  0  0  0  0  0  0  0  0  0
    6.4533   -1.0099    0.0000 C   0  0  0  0  0  0  0  0  0  0  0  0
    7.1678   -1.4224    0.0000 C   0  0  0  0  0  0  0  0  0  0  0  0
    5.0244   -1.0099    0.0000 C   0  0  0  0  0  0  0  0  0  0  0  0
    5.7388   -1.4224    0.0000 C   0  0  0  0  0  0  0  0  0  0  0  0
    5.0244   -0.1849    0.0000 C   0  0  0  0  0  0  0  0  0  0  0  0
    6.4533   -0.1849    0.0000 C   0  0  0  0  0  0  0  0  0  0  0  0
    5.7388    0.2276    0.0000 C   0  0  0  0  0  0  0  0  0  0  0  0
    3.5954   -1.0099    0.0000 C   0  0  0  0  0  0  0  0  0  0  0  0
   -2.1203   -1.0099    0.0000 C   0  0  0  0  0  0  0  0  0  0  0  0
   -3.5493   -1.0099    0.0000 C   0  0  0  0  0  0  0  0  0  0  0  0
   -1.4059   -1.4224    0.0000 C   0  0  0  0  0  0  0  0  0  0  0  0
   -2.8348   -1.4224    0.0000 C   0  0  0  0  0  0  0  0  0  0  0  0
   -3.5493   -0.1849    0.0000 C   0  0  0  0  0  0  0  0  0  0  0  0
   -2.1203   -0.1849    0.0000 C   0  0  0  0  0  0  0  0  0  0  0  0
   -2.8348    0.2276    0.0000 C   0  0  0  0  0  0  0  0  0  0  0  0
    2.8810   -1.4224    0.0000 C   0  0  0  0  0  0  0  0  0  0  0  0
   -0.6914   -1.0099    0.0000 C   0  0  0  0  0  0  0  0  0  0  0  0
    0.7375   -1.0099    0.0000 C   0  0  0  0  0  0  0  0  0  0  0  0
    2.1665   -1.0099    0.0000 C   0  0  0  0  0  0  0  0  0  0  0  0
    1.4520   -1.4224    0.0000 C   0  0  0  0  0  0  0  0  0  0  0  0
   -4.2637   -1.4224    0.0000 C   0  0  0  0  0  0  0  0  0  0  0  0
   -4.2637    0.2276    0.0000 C   0  0  0  0  0  0  0  0  0  0  0  0
  1 14  1  0
  2 11  1  0
  3 11  1  0
  4 11  1  0
  5 17  2  0
  6 26  1  0
  6 27  1  0
  7 20  2  0
  8 27  2  0
  9 12  1  0
  9 17  1  0
 10 11  1  0
 10 13  1  0
 10 15  2  0
 12 13  2  0
 12 14  1  0
 14 16  2  0
 15 16  1  0
 17 25  1  0
 18 20  1  0
 18 21  2  0
 18 23  1  0
 19 21  1  0
 19 22  2  0
 19 30  1  0
 20 26  1  0
 22 24  1  0
 22 31  1  0
 23 24  2  0
 25 28  1  0
 27 29  1  0
 28 29  1  0
M  END

> <chembl_id>
CHEMBL1400690

> <chembl_pref_name>
None

$$$$

     RDKit          2D

 21 21  0  0  0  0  0  0  0  0999 V2000
    4.2648   -0.0825    0.0000 S   0  0  0  0  0  0  0  0  0  0  0  0
   10.6951   -1.3200    0.0000 S   0  0  0  0  0  0  0  0  0  0  0  0
    3.5504    1.1550    0.0000 N   0  0  0  0  0  0  0  0  0  0  0  0
    2.8359   -0.0825    0.0000 N   0  0  0  0  0  0  0  0  0  0  0  0
    7.1227   -0.0825    0.0000 N   0  0  0  0  0  0  0  0  0  0  0  0
    8.5517   -0.0825    0.0000 C   0  0  0  0  0  0  0  0  0  0  0  0
    3.5504    0.3300    0.0000 C   0  0  0  0  0  0  0  0  0  0  0  0
    9.9806   -0.9075    0.0000 C   0  0  0  0  0  0  0  0  0  0  0  0
    9.2661    0.3300    0.0000 C   0  0  0  0  0  0  0  0  0  0  0  0
    8.5517   -0.9075    0.0000 C   0  0  0  0  0  0  0  0  0  0  0  0
    9.9806   -0.0825    0.0000 C   0  0  0  0  0  0  0  0  0  0  0  0
    9.2661   -1.3200    0.0000 C   0  0  0  0  0  0  0  0  0  0  0  0
    7.8372    0.3300    0.0000 C   0  0  0  0  0  0  0  0  0  0  0  0
    2.8359    1.5675    0.0000 C   0  0  0  0  0  0  0  0  0  0  0  0
    2.1214    0.3300    0.0000 C   0  0  0  0  0  0  0  0  0  0  0  0
    2.1214    1.1550    0.0000 C   0  0  0  0  0  0  0  0  0  0  0  0
    4.9793    0.3300    0.0000 C   0  0  0  0  0  0  0  0  0  0  0  0
    5.6938   -0.0825    0.0000 C   0  0  0  0  0  0  0  0  0  0  0  0
    6.4083    0.3300    0.0000 C   0  0  0  0  0  0  0  0  0  0  0  0
   11.4096   -0.9075    0.0000 C   0  0  0  0  0  0  0  0  0  0  0  0
    0.0000    0.0000    0.0000 Cl  0  0  0  0  0  0  0  0  0  0  0  0
  1  7  1  0
  1 17  1  0
  2  8  1  0
  2 20  1  0
  3  7  2  0
  3 14  1  0
  4  7  1  0
  4 15  2  0
  5 13  1  0
  5 19  1  0
  6  9  2  0
  6 10  1  0
  6 13  1  0
  8 11  2  0
  8 12  1  0
  9 11  1  0
 10 12  2  0
 14 16  2  0
 15 16  1  0
 17 18  1  0
 18 19  1  0
M  END

> <chembl_id>
CHEMBL1708438

> <chembl_pref_name>
None

$$$$

     RDKit          2D

107114  0  0  0  0  0  0  0  0999 V2000
   -3.9696   -7.8722    0.0000 N   0  0  0  0  0  0  0  0  0  0  0  0
   -3.9740   -8.6973    0.0000 C   0  0  0  0  0  0  0  0  0  0  0  0
   -2.5434   -8.6981    0.0000 O   0  0  0  0  0  0  0  0  0  0  0  0
   -3.2587   -9.1103    0.0000 C   0  0  0  0  0  0  0  0  0  0  0  0
   -4.6841   -9.1055    0.0000 C   0  0  0  0  0  0  0  0  0  0  0  0
   -2.5473  -10.3442    0.0000 C   0  0  0  0  0  0  0  0  0  0  0  0
   -1.8281   -9.1110    0.0000 O   0  0  0  0  0  0  0  0  0  0  0  0
   -1.8320   -9.9315    0.0000 C   0  0  0  0  0  0  0  0  0  0  0  0
   -2.5517  -11.1693    0.0000 C   0  0  0  0  0  0  0  0  0  0  0  0
   -3.2618  -11.5775    0.0000 C   0  0  0  0  0  0  0  0  0  0  0  0
   -3.2662  -12.4026    0.0000 O   0  0  0  0  0  0  0  0  0  0  0  0
   -0.4075   -9.9372    0.0000 C   0  0  0  0  0  0  0  0  0  0  0  0
    0.3079  -11.1758    0.0000 O   0  0  0  0  0  0  0  0  0  0  0  0
    0.3077  -10.3502    0.0000 C   0  0  0  0  0  0  0  0  0  0  0  0
   -0.4032   -9.1121    0.0000 C   0  0  0  0  0  0  0  0  0  0  0  0
    1.0639   -9.0419    0.0000 C   0  0  0  0  0  0  0  0  0  0  0  0
    0.3115   -8.7040    0.0000 C   0  0  0  0  0  0  0  0  0  0  0  0
    0.3999   -7.8850    0.0000 C   0  0  0  0  0  0  0  0  0  0  0  0
    1.2069   -7.7158    0.0000 C   0  0  0  0  0  0  0  0  0  0  0  0
    1.4635   -6.9310    0.0000 C   0  0  0  0  0  0  0  0  0  0  0  0
    0.9130   -6.3159    0.0000 C   0  0  0  0  0  0  0  0  0  0  0  0
    0.1060   -6.4902    0.0000 C   0  0  0  0  0  0  0  0  0  0  0  0
   -0.1506   -7.2699    0.0000 C   0  0  0  0  0  0  0  0  0  0  0  0
    1.7413  -10.3489    0.0000 C   0  0  0  0  0  0  0  0  0  0  0  0
    2.4557   -9.1156    0.0000 O   0  0  0  0  0  0  0  0  0  0  0  0
    2.4513   -9.9407    0.0000 C   0  0  0  0  0  0  0  0  0  0  0  0
    1.7368  -11.1739    0.0000 C   0  0  0  0  0  0  0  0  0  0  0  0
    1.0222  -11.5821    0.0000 C   0  0  0  0  0  0  0  0  0  0  0  0
    1.0178  -12.4072    0.0000 C   0  0  0  0  0  0  0  0  0  0  0  0
    0.3025  -12.8194    0.0000 C   0  0  0  0  0  0  0  0  0  0  0  0
    3.8788   -9.9438    0.0000 C   0  0  0  0  0  0  0  0  0  0  0  0
    5.3089   -9.9491    0.0000 O   0  0  0  0  0  0  0  0  0  0  0  0
    4.5891  -10.3613    0.0000 C   0  0  0  0  0  0  0  0  0  0  0  0
    3.8828   -9.1232    0.0000 C   0  0  0  0  0  0  0  0  0  0  0  0
    5.3504   -9.0484    0.0000 C   0  0  0  0  0  0  0  0  0  0  0  0
    4.5935   -8.7105    0.0000 C   0  0  0  0  0  0  0  0  0  0  0  0
    4.6817   -7.8915    0.0000 C   0  0  0  0  0  0  0  0  0  0  0  0
    5.4933   -7.7223    0.0000 C   0  0  0  0  0  0  0  0  0  0  0  0
    5.7453   -6.9374    0.0000 C   0  0  0  0  0  0  0  0  0  0  0  0
    5.1994   -6.3229    0.0000 C   0  0  0  0  0  0  0  0  0  0  0  0
    4.3924   -6.4921    0.0000 C   0  0  0  0  0  0  0  0  0  0  0  0
    4.1312   -7.2765    0.0000 C   0  0  0  0  0  0  0  0  0  0  0  0
    5.3016  -11.6013    0.0000 C   0  0  0  0  0  0  0  0  0  0  0  0
    6.0166  -10.3635    0.0000 O   0  0  0  0  0  0  0  0  0  0  0  0
    6.0122  -11.1886    0.0000 C   0  0  0  0  0  0  0  0  0  0  0  0
    5.2977  -12.4219    0.0000 C   0  0  0  0  0  0  0  0  0  0  0  0
    3.8307  -12.4922    0.0000 C   0  0  0  0  0  0  0  0  0  0  0  0
    4.5825  -12.8340    0.0000 C   0  0  0  0  0  0  0  0  0  0  0  0
    4.4896  -13.6530    0.0000 C   0  0  0  0  0  0  0  0  0  0  0  0
    3.6872  -13.8228    0.0000 C   0  0  0  0  0  0  0  0  0  0  0  0
    3.4312  -14.6025    0.0000 C   0  0  0  0  0  0  0  0  0  0  0  0
    3.9811  -15.2222    0.0000 C   0  0  0  0  0  0  0  0  0  0  0  0
    4.7881  -15.0529    0.0000 C   0  0  0  0  0  0  0  0  0  0  0  0
    5.0447  -14.2687    0.0000 C   0  0  0  0  0  0  0  0  0  0  0  0
    6.7270  -11.6060    0.0000 N   0  0  0  0  0  0  0  0  0  0  0  0
    7.4955  -11.3377    0.0000 C   0  0  0  0  0  0  0  0  0  0  0  0
    6.9374  -10.0191    0.0000 O   0  0  0  0  0  0  0  0  0  0  0  0
    7.5996  -10.5195    0.0000 C   0  0  0  0  0  0  0  0  0  0  0  0
    8.1739  -11.8061    0.0000 C   0  0  0  0  0  0  0  0  0  0  0  0
    6.8890  -12.4908    0.0000 C   0  0  0  0  0  0  0  0  0  0  0  0
    7.7822  -12.6134    0.0000 C   0  0  0  0  0  0  0  0  0  0  0  0
    8.3543   -9.3742    0.0000 C   0  0  0  0  0  0  0  0  0  0  0  0
    9.7883   -9.3544    0.0000 O   0  0  0  0  0  0  0  0  0  0  0  0
    9.0646   -8.9520    0.0000 C   0  0  0  0  0  0  0  0  0  0  0  0
    9.0539   -8.1350    0.0000 N   0  0  0  0  0  0  0  0  0  0  0  0
    9.7676   -7.7063    0.0000 C   0  0  0  0  0  0  0  0  0  0  0  0
    9.0411   -6.4970    0.0000 O   0  0  0  0  0  0  0  0  0  0  0  0
    9.7567   -6.8913    0.0000 C   0  0  0  0  0  0  0  0  0  0  0  0
   10.4929   -8.1142    0.0000 C   0  0  0  0  0  0  0  0  0  0  0  0
   11.1978   -7.6936    0.0000 C   0  0  0  0  0  0  0  0  0  0  0  0
   10.5085   -8.9464    0.0000 C   0  0  0  0  0  0  0  0  0  0  0  0
   11.2239   -9.3404    0.0000 C   0  0  0  0  0  0  0  0  0  0  0  0
   10.4530   -5.6473    0.0000 C   0  0  0  0  0  0  0  0  0  0  0  0
   11.8935   -5.6257    0.0000 O   0  0  0  0  0  0  0  0  0  0  0  0
   11.1678   -5.2180    0.0000 C   0  0  0  0  0  0  0  0  0  0  0  0
    9.7367   -5.2440    0.0000 C   0  0  0  0  0  0  0  0  0  0  0  0
   10.4487   -3.9956    0.0000 C   0  0  0  0  0  0  0  0  0  0  0  0
    9.7256   -4.4111    0.0000 C   0  0  0  0  0  0  0  0  0  0  0  0
    9.0183   -4.0078    0.0000 C   0  0  0  0  0  0  0  0  0  0  0  0
    9.0109   -3.1845    0.0000 C   0  0  0  0  0  0  0  0  0  0  0  0
    9.7223   -2.7640    0.0000 C   0  0  0  0  0  0  0  0  0  0  0  0
   10.4413   -3.1717    0.0000 C   0  0  0  0  0  0  0  0  0  0  0  0
   11.1562   -4.3989    0.0000 N   0  0  0  0  0  0  0  0  0  0  0  0
   11.8666   -3.9743    0.0000 C   0  0  0  0  0  0  0  0  0  0  0  0
   11.1448   -2.7612    0.0000 O   0  0  0  0  0  0  0  0  0  0  0  0
   11.8558   -3.1598    0.0000 C   0  0  0  0  0  0  0  0  0  0  0  0
   12.5968   -4.3774    0.0000 C   0  0  0  0  0  0  0  0  0  0  0  0
   13.2970   -3.9622    0.0000 C   0  0  0  0  0  0  0  0  0  0  0  0
   14.0273   -4.3652    0.0000 O   0  0  0  0  0  0  0  0  0  0  0  0
   12.5706   -2.7305    0.0000 N   0  0  0  0  0  0  0  0  0  0  0  0
   -4.6793   -7.4563    0.0000 C   0  0  0  0  0  0  0  0  0  0  0  0
   -4.6749   -6.6320    0.0000 O   0  0  0  0  0  0  0  0  0  0  0  0
   -5.3981   -7.8646    0.0000 C   0  0  0  0  0  0  0  0  0  0  0  0
   -4.6941   -9.9329    0.0000 O   0  0  0  0  0  0  0  0  0  0  0  0
   -3.2607   -9.9346    0.0000 N   0  0  0  0  0  0  0  0  0  0  0  0
   -3.9771  -11.1646    0.0000 N   0  0  0  0  0  0  0  0  0  0  0  0
   -1.1214  -10.3461    0.0000 N   0  0  0  0  0  0  0  0  0  0  0  0
    1.6172   -8.4288    0.0000 N   0  0  0  0  0  0  0  0  0  0  0  0
    1.0219   -9.9417    0.0000 N   0  0  0  0  0  0  0  0  0  0  0  0
    0.3031  -13.6423    0.0000 N   0  0  0  0  0  0  0  0  0  0  0  0
    3.1619  -10.3554    0.0000 N   0  0  0  0  0  0  0  0  0  0  0  0
    5.9037   -8.4353    0.0000 N   0  0  0  0  0  0  0  0  0  0  0  0
    4.5871  -11.1856    0.0000 N   0  0  0  0  0  0  0  0  0  0  0  0
    3.2803  -13.1077    0.0000 N   0  0  0  0  0  0  0  0  0  0  0  0
    8.3570  -10.2031    0.0000 N   0  0  0  0  0  0  0  0  0  0  0  0
   10.4638   -6.4710    0.0000 N   0  0  0  0  0  0  0  0  0  0  0  0
   13.2862   -3.1477    0.0000 O   0  0  0  0  0  0  0  0  0  0  0  0
  6  8  1  0
  8  7  2  0
  6  9  1  6
  9 10  1  0
 10 11  2  0
 12 14  1  0
 14 13  2  0
 12 15  1  6
 15 17  1  0
 16 17  2  0
 17 18  1  0
 18 19  2  0
 19 20  1  0
 20 21  2  0
 21 22  1  0
 22 23  2  0
 23 18  1  0
 24 26  1  0
 26 25  2  0
 24 27  1  6
 27 28  1  0
 28 29  1  0
 29 30  1  0
 31 33  1  0
 33 32  2  0
 31 34  1  1
 34 36  1  0
 35 36  2  0
 36 37  1  0
 37 38  2  0
 38 39  1  0
 39 40  2  0
 40 41  1  0
 41 42  2  0
 42 37  1  0
 43 45  1  0
 45 44  2  0
 43 46  1  6
 46 48  1  0
 47 48  2  0
 48 49  1  0
 49 50  2  0
 50 51  1  0
 51 52  2  0
 52 53  1  0
 53 54  2  0
 54 49  1  0
 55 56  1  0
 56 58  1  6
 58 57  2  0
 56 59  1  0
 60 61  1  0
 61 59  1  0
 60 55  1  0
 62 64  1  0
 64 63  2  0
 66 65  1  6
 66 68  1  0
 68 67  2  0
 66 69  1  0
 69 70  1  1
 69 71  1  0
 71 72  1  0
 73 75  1  0
 75 74  2  0
 73 76  1  1
 76 78  1  0
 77 78  2  0
 78 79  1  0
 79 80  2  0
 80 81  1  0
 81 82  2  0
 82 77  1  0
 84 83  1  6
 84 86  1  0
 86 85  2  0
 84 87  1  0
 87 88  1  0
 88 89  2  0
  1 91  1  0
 91 92  2  0
 91 93  1  0
 45 55  1  0
 64 65  1  0
 75 83  1  0
 86 90  1  0
  2  1  1  6
  2  4  1  0
  4  3  2  0
  2  5  1  0
 30100  1  0
101 31  1  0
 26101  1  0
 97 12  1  0
  8 97  1  0
102 35  1  0
 38102  1  0
 95  6  1  0
  4 95  1  0
103 43  1  0
 33103  1  0
 98 16  1  0
 19 98  1  0
104 47  1  0
 50104  1  0
  5 94  1  0
105 62  1  0
 58105  1  0
 99 24  1  0
 14 99  1  0
106 73  1  0
 68106  1  0
 10 96  1  0
 88107  1  0
M  END

> <chembl_id>
CHEMBL500694

> <chembl_pref_name>
None

$$$$

     RDKit          2D

 21 22  0  0  0  0  0  0  0  0999 V2000
    2.1588   -0.4914    0.0000 S   0  0  0  0  0  0  0  0  0  0  0  0
    0.5895    0.0185    0.0000 O   0  0  0  0  0  0  0  0  0  0  0  0
   -3.0890   -3.2937    0.0000 O   0  0  0  0  0  0  0  0  0  0  0  0
    3.6108   -0.2614    0.0000 N   0  0  0  0  0  0  0  0  0  0  0  0
    3.1983   -1.5309    0.0000 N   0  0  0  0  0  0  0  0  0  0  0  0
    4.2783   -0.7463    0.0000 N   0  0  0  0  0  0  0  0  0  0  0  0
    4.0233   -1.5309    0.0000 N   0  0  0  0  0  0  0  0  0  0  0  0
   -1.6913   -2.9966    0.0000 N   0  0  0  0  0  0  0  0  0  0  0  0
    2.9434   -0.7463    0.0000 C   0  0  0  0  0  0  0  0  0  0  0  0
    0.1480   -1.3405    0.0000 C   0  0  0  0  0  0  0  0  0  0  0  0
    0.7611   -0.7885    0.0000 C   0  0  0  0  0  0  0  0  0  0  0  0
    1.5457   -1.0434    0.0000 C   0  0  0  0  0  0  0  0  0  0  0  0
   -1.0782   -2.4445    0.0000 C   0  0  0  0  0  0  0  0  0  0  0  0
    0.3195   -2.1475    0.0000 C   0  0  0  0  0  0  0  0  0  0  0  0
   -0.6366   -1.0855    0.0000 C   0  0  0  0  0  0  0  0  0  0  0  0
    3.6108    0.5636    0.0000 C   0  0  0  0  0  0  0  0  0  0  0  0
   -0.2936   -2.6995    0.0000 C   0  0  0  0  0  0  0  0  0  0  0  0
   -1.2497   -1.6376    0.0000 C   0  0  0  0  0  0  0  0  0  0  0  0
   -2.4759   -2.7416    0.0000 C   0  0  0  0  0  0  0  0  0  0  0  0
    2.8964    0.9761    0.0000 C   0  0  0  0  0  0  0  0  0  0  0  0
   -2.6475   -1.9347    0.0000 C   0  0  0  0  0  0  0  0  0  0  0  0
  1  9  1  0
  1 12  1  0
  2 11  2  0
  3 19  2  0
  4  6  1  0
  4  9  1  0
  4 16  1  0
  5  7  1  0
  5  9  2  0
  6  7  2  0
  8 13  1  0
  8 19  1  0
 10 11  1  0
 10 14  2  0
 10 15  1  0
 11 12  1  0
 13 17  2  0
 13 18  1  0
 14 17  1  0
 15 18  2  0
 16 20  1  0
 19 21  1  0
M  END

> <chembl_id>
CHEMBL1440693

> <chembl_pref_name>
None

$$$$

     RDKit          2D

 52 53  0  0  0  0  0  0  0  0999 V2000
   11.8647  -16.0735    0.0000 Br  0  0  0  0  0  0  0  0  0  0  0  0
   10.3229  -19.9125    0.0000 C   0  0  0  0  0  0  0  0  0  0  0  0
   11.0326  -19.4917    0.0000 C   0  0  0  0  0  0  0  0  0  0  0  0
   11.7518  -19.8959    0.0000 C   0  0  0  0  0  0  0  0  0  0  0  0
   12.4614  -19.4751    0.0000 C   0  0  0  0  0  0  0  0  0  0  0  0
   13.1806  -19.8794    0.0000 C   0  0  0  0  0  0  0  0  0  0  0  0
   16.6558  -15.2902    0.0000 C   0  0  0  0  0  0  0  0  0  0  0  0
   17.3789  -15.6872    0.0000 C   0  0  0  0  0  0  0  0  0  0  0  0
   17.3943  -16.5079    0.0000 C   0  0  0  0  0  0  0  0  0  0  0  0
   16.6936  -16.9355    0.0000 C   0  0  0  0  0  0  0  0  0  0  0  0
   15.9705  -16.5385    0.0000 C   0  0  0  0  0  0  0  0  0  0  0  0
   15.9479  -15.7139    0.0000 C   0  0  0  0  0  0  0  0  0  0  0  0
   16.7515  -15.9037    0.0000 C   0  0  0  0  0  0  0  0  0  0  0  0
   16.9465  -15.0981    0.0000 C   0  0  0  0  0  0  0  0  0  0  0  0
   17.4543  -15.4719    0.0000 C   0  0  0  0  0  0  0  0  0  0  0  0
   18.1212  -16.8980    0.0000 C   0  0  0  0  0  0  0  0  0  0  0  0
   16.7127  -17.7602    0.0000 N   0  0  0  0  0  0  0  0  0  0  0  0
   16.0078  -18.1891    0.0000 C   0  0  0  0  0  0  0  0  0  0  0  0
   16.0268  -19.0139    0.0000 C   0  0  0  0  0  0  0  0  0  0  0  0
   15.3221  -19.4427    0.0000 N   0  0  0  0  0  0  0  0  0  0  0  0
   15.3410  -20.2674    0.0000 C   0  0  0  0  0  0  0  0  0  0  0  0
   14.5983  -19.0468    0.0000 C   0  0  0  0  0  0  0  0  0  0  0  0
   14.6116  -19.8624    0.0000 C   0  0  0  0  0  0  0  0  0  0  0  0
   16.0648  -20.6634    0.0000 C   0  0  0  0  0  0  0  0  0  0  0  0
   14.5793  -18.2220    0.0000 C   0  0  0  0  0  0  0  0  0  0  0  0
   13.8902  -19.4586    0.0000 C   0  0  0  0  0  0  0  0  0  0  0  0
    1.7545  -19.1330    0.0000 C   0  0  0  0  0  0  0  0  0  0  0  0
    1.7545  -19.9580    0.0000 C   0  0  0  0  0  0  0  0  0  0  0  0
    2.4665  -20.3664    0.0000 C   0  0  0  0  0  0  0  0  0  0  0  0
    3.1785  -19.9580    0.0000 C   0  0  0  0  0  0  0  0  0  0  0  0
    3.1785  -19.1330    0.0000 C   0  0  0  0  0  0  0  0  0  0  0  0
    2.4665  -18.7164    0.0000 C   0  0  0  0  0  0  0  0  0  0  0  0
    2.2461  -19.5122    0.0000 C   0  0  0  0  0  0  0  0  0  0  0  0
    1.4462  -19.2955    0.0000 C   0  0  0  0  0  0  0  0  0  0  0  0
    1.5295  -19.9205    0.0000 C   0  0  0  0  0  0  0  0  0  0  0  0
    2.4586  -21.1914    0.0000 C   0  0  0  0  0  0  0  0  0  0  0  0
    3.8924  -20.3715    0.0000 N   0  0  0  0  0  0  0  0  0  0  0  0
    4.6075  -19.9601    0.0000 C   0  0  0  0  0  0  0  0  0  0  0  0
    5.3213  -20.3736    0.0000 C   0  0  0  0  0  0  0  0  0  0  0  0
    6.0364  -19.9621    0.0000 N   0  0  0  0  0  0  0  0  0  0  0  0
    6.7502  -20.3756    0.0000 C   0  0  0  0  0  0  0  0  0  0  0  0
    6.0376  -19.1371    0.0000 C   0  0  0  0  0  0  0  0  0  0  0  0
    6.7526  -18.7257    0.0000 C   0  0  0  0  0  0  0  0  0  0  0  0
    6.7461  -19.5414    0.0000 C   0  0  0  0  0  0  0  0  0  0  0  0
    6.7490  -21.2006    0.0000 C   0  0  0  0  0  0  0  0  0  0  0  0
    7.4653  -19.9456    0.0000 C   0  0  0  0  0  0  0  0  0  0  0  0
    8.1749  -19.5248    0.0000 C   0  0  0  0  0  0  0  0  0  0  0  0
    8.8941  -19.9290    0.0000 C   0  0  0  0  0  0  0  0  0  0  0  0
    9.6037  -19.5082    0.0000 C   0  0  0  0  0  0  0  0  0  0  0  0
    2.4665  -19.7164    0.0000 H   0  0  0  0  0  0  0  0  0  0  0  0
   16.8245  -16.1951    0.0000 H   0  0  0  0  0  0  0  0  0  0  0  0
    7.9098  -15.9647    0.0000 Br  0  0  0  0  0  0  0  0  0  0  0  0
  2  3  1  0
  3  4  1  0
  4  5  1  0
  5  6  1  0
  7  8  1  0
  7 12  1  0
  8  9  1  0
  9 10  1  0
 10 11  1  0
 11 12  1  0
 12 13  1  0
  9 13  1  0
 13 14  1  0
 13 15  1  0
  9 16  1  6
 10 17  2  0
 17 18  1  0
 18 19  1  0
 19 20  1  0
 20 21  1  0
 20 22  1  0
 20 23  1  0
 21 24  1  0
 22 25  1  0
  6 26  1  0
 26 23  1  0
 27 28  1  0
 27 32  1  0
 28 29  1  0
 29 30  1  0
 30 31  1  0
 31 32  1  0
 32 33  1  0
 29 33  1  0
 33 34  1  0
 33 35  1  0
 29 36  1  1
 30 37  2  0
 37 38  1  0
 38 39  1  0
 39 40  1  0
 40 41  1  0
 40 42  1  0
 42 43  1  0
 40 44  1  0
 41 45  1  0
 44 46  1  0
 46 47  1  0
 47 48  1  0
 48 49  1  0
 49  2  1  0
 32 50  1  1
 12 51  1  6
M  CHG  4   1  -1  20   1  40   1  52  -1
M  END

> <chembl_id>
CHEMBL2442219

> <chembl_pref_name>
None

$$$$

     RDKit          2D

 45 48  0  0  0  0  0  0  0  0999 V2000
    7.7722    0.0000    0.0000 F   0  0  0  0  0  0  0  0  0  0  0  0
    6.9472    0.8250    0.0000 F   0  0  0  0  0  0  0  0  0  0  0  0
    6.9472   -0.8250    0.0000 F   0  0  0  0  0  0  0  0  0  0  0  0
    5.7097   -0.7145    0.0000 O   0  0  0  0  0  0  0  0  0  0  0  0
    5.7097    0.7145    0.0000 O   0  0  0  0  0  0  0  0  0  0  0  0
    6.9472    0.0000    0.0000 C   0  0  0  0  0  0  0  0  0  0  0  0
    6.1222    0.0000    0.0000 C   0  0  0  0  0  0  0  0  0  0  0  0
   -1.4879    5.1814    0.0000 F   0  0  0  0  0  0  0  0  0  0  0  0
    2.1208   -2.4304    0.0000 O   0  0  0  0  0  0  0  0  0  0  0  0
    2.1208    0.4737    0.0000 O   0  0  0  0  0  0  0  0  0  0  0  0
   -0.1591   -3.0001    0.0000 O   0  0  0  0  0  0  0  0  0  0  0  0
    1.2416   -2.7177    0.0000 O   0  0  0  0  0  0  0  0  0  0  0  0
   -0.1883   -0.9784    0.0000 N   0  0  0  0  0  0  0  0  0  0  0  0
    2.3508   -0.9784    0.0000 N   0  0  0  0  0  0  0  0  0  0  0  0
    0.2966   -1.6458    0.0000 C   0  0  0  0  0  0  0  0  0  0  0  0
    1.0813   -1.3909    0.0000 C   0  0  0  0  0  0  0  0  0  0  0  0
    1.0813   -0.5659    0.0000 C   0  0  0  0  0  0  0  0  0  0  0  0
    0.2966   -0.3109    0.0000 C   0  0  0  0  0  0  0  0  0  0  0  0
    1.8659   -1.6458    0.0000 C   0  0  0  0  0  0  0  0  0  0  0  0
    1.8659   -0.3109    0.0000 C   0  0  0  0  0  0  0  0  0  0  0  0
    0.4597   -2.4545    0.0000 C   0  0  0  0  0  0  0  0  0  0  0  0
   -0.3106   -2.2042    0.0000 C   0  0  0  0  0  0  0  0  0  0  0  0
    0.0417    0.4737    0.0000 C   0  0  0  0  0  0  0  0  0  0  0  0
   -1.0979   -1.9575    0.0000 C   0  0  0  0  0  0  0  0  0  0  0  0
    3.1758   -0.9784    0.0000 C   0  0  0  0  0  0  0  0  0  0  0  0
   -0.7653    0.6452    0.0000 C   0  0  0  0  0  0  0  0  0  0  0  0
    0.5937    1.0868    0.0000 C   0  0  0  0  0  0  0  0  0  0  0  0
   -1.0202    1.4298    0.0000 C   0  0  0  0  0  0  0  0  0  0  0  0
    0.3388    1.8714    0.0000 C   0  0  0  0  0  0  0  0  0  0  0  0
   -1.7052   -2.5159    0.0000 C   0  0  0  0  0  0  0  0  0  0  0  0
   -1.2779   -1.1524    0.0000 C   0  0  0  0  0  0  0  0  0  0  0  0
   -0.4682    2.0429    0.0000 C   0  0  0  0  0  0  0  0  0  0  0  0
    3.5883   -0.2639    0.0000 C   0  0  0  0  0  0  0  0  0  0  0  0
   -0.9410   -2.7370    0.0000 C   0  0  0  0  0  0  0  0  0  0  0  0
   -0.7231    2.8276    0.0000 C   0  0  0  0  0  0  0  0  0  0  0  0
   -2.4924   -2.2692    0.0000 C   0  0  0  0  0  0  0  0  0  0  0  0
   -2.0651   -0.9057    0.0000 C   0  0  0  0  0  0  0  0  0  0  0  0
   -2.6724   -1.4641    0.0000 C   0  0  0  0  0  0  0  0  0  0  0  0
   -1.5301    2.9991    0.0000 C   0  0  0  0  0  0  0  0  0  0  0  0
   -0.1711    3.4407    0.0000 C   0  0  0  0  0  0  0  0  0  0  0  0
   -1.7850    3.7837    0.0000 C   0  0  0  0  0  0  0  0  0  0  0  0
   -0.4260    4.2253    0.0000 C   0  0  0  0  0  0  0  0  0  0  0  0
   -1.2330    4.3968    0.0000 C   0  0  0  0  0  0  0  0  0  0  0  0
    1.0813    0.4341    0.0000 H   0  0  0  0  0  0  0  0  0  0  0  0
    1.0813   -2.3909    0.0000 H   0  0  0  0  0  0  0  0  0  0  0  0
  1  6  1  0
  2  6  1  0
  3  6  1  0
  4  7  2  0
  5  7  1  0
  6  7  1  0
  8 43  1  0
  9 19  2  0
 10 20  2  0
 11 21  1  0
 11 34  1  0
 12 21  2  0
 13 15  1  0
 13 18  1  0
 14 19  1  0
 14 20  1  0
 14 25  1  0
 15 16  1  0
 15 21  1  0
 15 22  1  1
 16 17  1  0
 16 19  1  0
 17 18  1  0
 17 20  1  0
 18 23  1  6
 22 24  1  0
 23 26  2  0
 23 27  1  0
 24 30  2  0
 24 31  1  0
 25 33  1  0
 26 28  1  0
 27 29  2  0
 28 32  2  0
 29 32  1  0
 30 36  1  0
 31 37  2  0
 32 35  1  0
 35 39  2  0
 35 40  1  0
 36 38  2  0
 37 38  1  0
 39 41  1  0
 40 42  2  0
 41 43  2  0
 42 43  1  0
 17 44  1  1
 16 45  1  1
M  END

> <chembl_id>
CHEMBL1435431

> <chembl_pref_name>
None

$$$$

     RDKit          2D

 60 63  0  0  1  0  0  0  0  0999 V2000
    8.7625   -4.8917    0.0000 C   0  0  0  0  0  0  0  0  0  0  0  0
    9.4250   -4.5417    0.0000 N   0  0  0  0  0  0  0  0  0  0  0  0
    5.0292   -3.3417    0.0000 C   0  0  0  0  0  0  0  0  0  0  0  0
    8.1375   -4.4750    0.0000 C   0  0  0  0  0  0  0  0  0  0  0  0
   10.0167   -4.9792    0.0000 C   0  0  0  0  0  0  0  0  0  0  0  0
    5.0042   -4.8917    0.0000 C   0  0  0  0  0  0  0  0  0  0  0  0
    3.8667   -5.6375    0.0000 C   0  0  0  0  0  0  0  0  0  0  0  0
    6.8792   -4.5542    0.0000 C   0  0  0  0  0  0  0  0  0  0  0  0
    7.5417   -4.9042    0.0000 N   0  0  0  0  0  0  0  0  0  0  0  0
    6.1417   -2.8667    0.0000 N   0  0  0  0  0  0  0  0  0  0  0  0
    5.7625   -3.5125    0.0000 C   0  0  0  0  0  0  0  0  0  0  0  0
    8.1375   -3.7167    0.0000 C   0  0  0  0  0  0  0  0  0  0  0  0
    5.6667   -4.5417    0.0000 N   0  0  0  0  0  0  0  0  0  0  0  0
    8.2042   -8.3542    0.0000 C   0  0  0  0  0  0  0  0  0  0  0  0
    4.3792   -4.4750    0.0000 C   0  0  0  0  0  0  0  0  0  0  0  0
    3.7917   -4.9042    0.0000 N   0  0  0  0  0  0  0  0  0  0  0  0
   10.6375   -4.5542    0.0000 C   0  0  0  0  0  0  0  0  0  0  0  0
    8.2042   -9.1042    0.0000 N   0  0  0  0  0  0  0  0  0  0  0  0
    4.9667   -2.5917    0.0000 C   0  0  0  0  0  0  0  0  0  0  0  0
    4.3792   -3.7167    0.0000 C   0  0  0  0  0  0  0  0  0  0  0  0
    8.7875   -3.3417    0.0000 C   0  0  0  0  0  0  0  0  0  0  0  0
    6.2542   -4.9750    0.0000 C   0  0  0  0  0  0  0  0  0  0  0  0
    8.8542   -9.4792    0.0000 C   0  0  0  0  0  0  0  0  0  0  0  0
    5.6542   -2.3042    0.0000 C   0  0  0  0  0  0  0  0  0  0  0  0
    8.7625   -5.6500    0.0000 O   0  0  0  0  0  0  0  0  0  0  0  0
   10.0167   -5.7292    0.0000 C   0  0  0  0  0  0  0  0  0  0  0  0
    4.5375   -5.9292    0.0000 O   0  0  0  0  0  0  0  0  0  0  0  0
    3.2792   -6.0667    0.0000 O   0  0  0  0  0  0  0  0  0  0  0  0
    5.0042   -5.6500    0.0000 O   0  0  0  0  0  0  0  0  0  0  0  0
    6.8875   -3.8000    0.0000 O   0  0  0  0  0  0  0  0  0  0  0  0
    8.8625   -7.9792    0.0000 O   0  0  0  0  0  0  0  0  0  0  0  0
   10.6417   -3.8042    0.0000 O   0  0  0  0  0  0  0  0  0  0  0  0
    8.7875   -2.5917    0.0000 O   0  0  0  0  0  0  0  0  0  0  0  0
    9.5042   -9.1042    0.0000 C   0  0  0  0  0  0  0  0  0  0  0  0
    7.5542   -7.9792    0.0000 N   0  0  0  0  0  0  0  0  0  0  0  0
   11.3875   -4.5542    0.0000 N   0  0  0  0  0  0  0  0  0  0  0  0
    9.4375   -3.7167    0.0000 O   0  0  0  0  0  0  0  0  0  0  0  0
   10.6625   -6.1125    0.0000 C   0  0  0  0  0  0  0  0  0  0  0  0
    9.6792   -3.7625    0.0000 C   0  0  0  0  0  0  0  0  0  0  0  0
    4.3667   -2.1417    0.0000 C   0  0  0  0  0  0  0  0  0  0  0  0
    2.6042   -5.7750    0.0000 C   0  0  0  0  0  0  0  0  0  0  0  0
    8.8542  -10.2292    0.0000 C   0  0  0  0  0  0  0  0  0  0  0  0
    6.2542   -5.7292    0.0000 C   0  0  0  0  0  0  0  0  0  0  0  0
    5.7417   -1.5542    0.0000 C   0  0  0  0  0  0  0  0  0  0  0  0
    9.5000   -8.3542    0.0000 C   0  0  0  0  0  0  0  0  0  0  0  0
   10.1542   -9.4792    0.0000 C   0  0  0  0  0  0  0  0  0  0  0  0
    7.5542   -7.2292    0.0000 C   0  0  0  0  0  0  0  0  0  0  0  0
   10.6625   -6.8625    0.0000 C   0  0  0  0  0  0  0  0  0  0  0  0
   11.3250   -5.6625    0.0000 C   0  0  0  0  0  0  0  0  0  0  0  0
    6.9042   -6.1042    0.0000 C   0  0  0  0  0  0  0  0  0  0  0  0
    6.9042   -6.8542    0.0000 C   0  0  0  0  0  0  0  0  0  0  0  0
    2.0167   -6.2042    0.0000 C   0  0  0  0  0  0  0  0  0  0  0  0
    2.5292   -5.0417    0.0000 C   0  0  0  0  0  0  0  0  0  0  0  0
    4.4542   -1.4000    0.0000 C   0  0  0  0  0  0  0  0  0  0  0  0
    9.5042  -10.6042    0.0000 C   0  0  0  0  0  0  0  0  0  0  0  0
    5.1417   -1.1042    0.0000 C   0  0  0  0  0  0  0  0  0  0  0  0
   10.1542  -10.2292    0.0000 C   0  0  0  0  0  0  0  0  0  0  0  0
   11.9625   -6.1125    0.0000 C   0  0  0  0  0  0  0  0  0  0  0  0
   11.3125   -7.2375    0.0000 C   0  0  0  0  0  0  0  0  0  0  0  0
   11.9625   -6.8625    0.0000 C   0  0  0  0  0  0  0  0  0  0  0  0
  2  1  1  0
  3 20  1  0
  4  1  1  0
  5  2  1  0
  6 13  1  0
  7 16  1  0
  8  9  1  0
  9  4  1  0
 10 11  1  0
 11  3  2  0
  4 12  1  1
 13 22  1  0
 14 35  1  0
 15  6  1  0
 16 15  1  0
 17  5  1  0
 18 14  1  0
 19  3  1  0
 15 20  1  1
 21 12  1  0
 22  8  1  0
 23 18  1  0
 24 19  2  0
 25  1  2  0
  5 26  1  6
 27  7  2  0
 28  7  1  0
 29  6  2  0
 30  8  2  0
 31 14  2  0
 32 17  2  0
 33 21  2  0
 34 23  1  0
 35 47  1  0
 36 17  1  0
 37 21  1  0
 38 26  1  0
 39  2  1  0
 40 19  1  0
 41 28  1  0
 42 23  2  0
 22 43  1  6
 44 24  1  0
 45 34  1  0
 46 34  2  0
 47 51  1  0
 48 38  2  0
 49 38  1  0
 50 43  1  0
 51 50  1  0
 52 41  1  0
 53 41  1  0
 54 40  2  0
 55 42  1  0
 56 54  1  0
 57 55  2  0
 58 49  2  0
 59 48  1  0
 60 58  1  0
 60 59  2  0
 24 10  1  0
 44 56  2  0
 46 57  1  0
M  END

> <chembl_id>
CHEMBL107694

> <chembl_pref_name>
None

$$$$

     RDKit          2D

 23 25  0  0  0  0  0  0  0  0999 V2000
   -0.3253    3.3229    0.0000 O   0  0  0  0  0  0  0  0  0  0  0  0
    3.6647    2.5243    0.0000 O   0  0  0  0  0  0  0  0  0  0  0  0
    0.2689   -2.7197    0.0000 O   0  0  0  0  0  0  0  0  0  0  0  0
    0.7366    1.0318    0.0000 N   0  0  0  0  0  0  0  0  0  0  0  0
    1.5213    1.2868    0.0000 C   0  0  0  0  0  0  0  0  0  0  0  0
    1.5213    2.1118    0.0000 C   0  0  0  0  0  0  0  0  0  0  0  0
    0.7366    2.3667    0.0000 C   0  0  0  0  0  0  0  0  0  0  0  0
    0.2517    1.6993    0.0000 C   0  0  0  0  0  0  0  0  0  0  0  0
    0.4817    0.2472    0.0000 C   0  0  0  0  0  0  0  0  0  0  0  0
    2.2357    2.5243    0.0000 C   0  0  0  0  0  0  0  0  0  0  0  0
    2.2357    0.8743    0.0000 C   0  0  0  0  0  0  0  0  0  0  0  0
    0.4817    3.1513    0.0000 C   0  0  0  0  0  0  0  0  0  0  0  0
    2.9502    2.1118    0.0000 C   0  0  0  0  0  0  0  0  0  0  0  0
    2.9502    1.2868    0.0000 C   0  0  0  0  0  0  0  0  0  0  0  0
    1.0337   -0.3659    0.0000 C   0  0  0  0  0  0  0  0  0  0  0  0
   -0.3253    0.0757    0.0000 C   0  0  0  0  0  0  0  0  0  0  0  0
   -0.5733    1.6993    0.0000 C   0  0  0  0  0  0  0  0  0  0  0  0
   -0.0282   -1.3220    0.0000 C   0  0  0  0  0  0  0  0  0  0  0  0
    0.7788   -1.1505    0.0000 C   0  0  0  0  0  0  0  0  0  0  0  0
   -0.5802   -0.7089    0.0000 C   0  0  0  0  0  0  0  0  0  0  0  0
    1.0337    3.7644    0.0000 C   0  0  0  0  0  0  0  0  0  0  0  0
   -0.2831   -2.1066    0.0000 C   0  0  0  0  0  0  0  0  0  0  0  0
   -1.0901   -2.2782    0.0000 C   0  0  0  0  0  0  0  0  0  0  0  0
  1 12  2  0
  2 13  1  0
  3 22  2  0
  4  5  1  0
  4  8  1  0
  4  9  1  0
  5  6  1  0
  5 11  2  0
  6  7  1  0
  6 10  2  0
  7  8  2  0
  7 12  1  0
  8 17  1  0
  9 15  2  0
  9 16  1  0
 10 13  1  0
 11 14  1  0
 12 21  1  0
 13 14  2  0
 15 19  1  0
 16 20  2  0
 18 19  2  0
 18 20  1  0
 18 22  1  0
 22 23  1  0
M  END

> <chembl_id>
CHEMBL1504069

> <chembl_pref_name>
None

$$$$

     RDKit          2D

 18 20  0  0  0  0  0  0  0  0999 V2000
   -1.8045   -2.1365    0.0000 Cl  0  0  0  0  0  0  0  0  0  0  0  0
    1.1934    0.0017    0.0000 N   0  0  0  0  0  0  0  0  0  0  0  0
    1.4233   -1.4504    0.0000 N   0  0  0  0  0  0  0  0  0  0  0  0
    1.4233    1.4538    0.0000 N   0  0  0  0  0  0  0  0  0  0  0  0
    2.4629   -0.4108    0.0000 C   0  0  0  0  0  0  0  0  0  0  0  0
    2.4629    0.4142    0.0000 C   0  0  0  0  0  0  0  0  0  0  0  0
    1.6783   -0.6657    0.0000 C   0  0  0  0  0  0  0  0  0  0  0  0
    1.6783    0.6691    0.0000 C   0  0  0  0  0  0  0  0  0  0  0  0
    3.1774   -0.8233    0.0000 C   0  0  0  0  0  0  0  0  0  0  0  0
    3.1774    0.8267    0.0000 C   0  0  0  0  0  0  0  0  0  0  0  0
    0.6164   -1.6219    0.0000 C   0  0  0  0  0  0  0  0  0  0  0  0
    3.8918   -0.4108    0.0000 C   0  0  0  0  0  0  0  0  0  0  0  0
    3.8918    0.4142    0.0000 C   0  0  0  0  0  0  0  0  0  0  0  0
    0.3614   -2.4065    0.0000 C   0  0  0  0  0  0  0  0  0  0  0  0
    0.0643   -1.0088    0.0000 C   0  0  0  0  0  0  0  0  0  0  0  0
   -0.9976   -1.9649    0.0000 C   0  0  0  0  0  0  0  0  0  0  0  0
   -0.4455   -2.5780    0.0000 C   0  0  0  0  0  0  0  0  0  0  0  0
   -0.7426   -1.1803    0.0000 C   0  0  0  0  0  0  0  0  0  0  0  0
  1 16  1  0
  2  7  2  0
  8  2  1  0
  3  7  1  0
  3 11  1  0
  4  8  2  0
  5  6  1  0
  5  7  1  0
  5  9  2  0
  6  8  1  0
  6 10  2  0
  9 12  1  0
 10 13  1  0
 11 14  2  0
 11 15  1  0
 12 13  2  0
 14 17  1  0
 15 18  2  0
 16 17  2  0
 16 18  1  0
M  END

> <chembl_id>
CHEMBL1370694

> <chembl_pref_name>
None

$$$$

     RDKit          2D

 23 24  0  0  0  0  0  0  0  0999 V2000
   -3.6037   -0.6436    0.0000 O   0  0  0  0  0  0  0  0  0  0  0  0
    1.3976    0.5939    0.0000 O   0  0  0  0  0  0  0  0  0  0  0  0
   -6.4615    1.8314    0.0000 O   0  0  0  0  0  0  0  0  0  0  0  0
   -5.0326    1.8314    0.0000 O   0  0  0  0  0  0  0  0  0  0  0  0
   -2.8892   -1.8811    0.0000 O   0  0  0  0  0  0  0  0  0  0  0  0
   -5.7471    1.4189    0.0000 N   0  0  0  0  0  0  0  0  0  0  0  0
   -5.7471    0.5939    0.0000 C   0  0  0  0  0  0  0  0  0  0  0  0
   -5.0326   -0.6436    0.0000 C   0  0  0  0  0  0  0  0  0  0  0  0
   -5.0326    0.1814    0.0000 C   0  0  0  0  0  0  0  0  0  0  0  0
   -6.4615    0.1814    0.0000 C   0  0  0  0  0  0  0  0  0  0  0  0
   -5.7471   -1.0561    0.0000 C   0  0  0  0  0  0  0  0  0  0  0  0
   -0.7458   -0.6436    0.0000 C   0  0  0  0  0  0  0  0  0  0  0  0
   -4.3181   -1.0561    0.0000 C   0  0  0  0  0  0  0  0  0  0  0  0
   -6.4615   -0.6436    0.0000 C   0  0  0  0  0  0  0  0  0  0  0  0
    0.6832    0.1814    0.0000 C   0  0  0  0  0  0  0  0  0  0  0  0
   -2.8892   -1.0561    0.0000 C   0  0  0  0  0  0  0  0  0  0  0  0
   -0.7458    0.1814    0.0000 C   0  0  0  0  0  0  0  0  0  0  0  0
   -0.0313   -1.0561    0.0000 C   0  0  0  0  0  0  0  0  0  0  0  0
   -1.4602   -1.0561    0.0000 C   0  0  0  0  0  0  0  0  0  0  0  0
   -0.0313    0.5939    0.0000 C   0  0  0  0  0  0  0  0  0  0  0  0
    0.6832   -0.6436    0.0000 C   0  0  0  0  0  0  0  0  0  0  0  0
   -2.1747   -0.6436    0.0000 C   0  0  0  0  0  0  0  0  0  0  0  0
    2.1121    0.1814    0.0000 C   0  0  0  0  0  0  0  0  0  0  0  0
  1 13  1  0
  1 16  1  0
  2 15  1  0
  2 23  1  0
  3  6  1  0
  4  6  2  0
  5 16  2  0
  6  7  1  0
  7  9  2  0
  7 10  1  0
  8  9  1  0
  8 11  2  0
  8 13  1  0
 10 14  2  0
 11 14  1  0
 12 17  2  0
 12 18  1  0
 12 19  1  0
 15 20  2  0
 15 21  1  0
 16 22  1  0
 17 20  1  0
 18 21  2  0
 19 22  2  0
M  CHG  2   3  -1   6   1
M  END

> <chembl_id>
CHEMBL1440614

> <chembl_pref_name>
None

$$$$

     RDKit          2D

 22 22  0  0  0  0  0  0  0  0999 V2000
    6.0875   -9.0875    0.0000 Cl  0  0  0  0  0  0  0  0  0  0  0  0
    6.1541   -6.9541    0.0000 S   0  0  0  0  0  0  0  0  0  0  0  0
    6.8686   -6.5416    0.0000 C   0  0  0  0  0  0  0  0  0  0  0  0
    7.5831   -6.9541    0.0000 N   0  0  0  0  0  0  0  0  0  0  0  0
    6.8686   -5.7167    0.0000 N   0  0  0  0  0  0  0  0  0  0  0  0
    8.2975   -6.5416    0.0000 C   0  0  0  0  0  0  0  0  0  0  0  0
    9.0121   -6.9541    0.0000 C   0  0  0  0  0  0  0  0  0  0  0  0
    9.0097   -7.7802    0.0000 C   0  0  0  0  0  0  0  0  0  0  0  0
    9.7233   -8.1926    0.0000 C   0  0  0  0  0  0  0  0  0  0  0  0
   10.4388   -7.7801    0.0000 C   0  0  0  0  0  0  0  0  0  0  0  0
   10.4362   -6.9509    0.0000 C   0  0  0  0  0  0  0  0  0  0  0  0
    9.7219   -6.5421    0.0000 C   0  0  0  0  0  0  0  0  0  0  0  0
   11.1538   -8.1916    0.0000 Cl  0  0  0  0  0  0  0  0  0  0  0  0
    5.4397   -6.5416    0.0000 C   0  0  0  0  0  0  0  0  0  0  0  0
    4.7252   -6.9541    0.0000 C   0  0  0  0  0  0  0  0  0  0  0  0
    4.0108   -6.5416    0.0000 C   0  0  0  0  0  0  0  0  0  0  0  0
    3.2965   -6.9541    0.0000 N   0  0  0  0  0  0  0  0  0  0  0  0
    2.5844   -6.5451    0.0000 C   0  0  0  0  0  0  0  0  0  0  0  0
    1.8723   -6.9541    0.0000 C   0  0  0  0  0  0  0  0  0  0  0  0
    1.8681   -7.7792    0.0000 C   0  0  0  0  0  0  0  0  0  0  0  0
    2.5822   -8.1937    0.0000 C   0  0  0  0  0  0  0  0  0  0  0  0
    3.3006   -7.7832    0.0000 C   0  0  0  0  0  0  0  0  0  0  0  0
  2  3  1  0
  3  4  1  0
  3  5  2  0
  4  6  1  0
  6  7  1  0
  7  8  2  0
  8  9  1  0
  9 10  2  0
 10 11  1  0
 11 12  2  0
 12  7  1  0
 10 13  1  0
  2 14  1  0
 14 15  1  0
 15 16  1  0
 16 17  1  0
 17 18  1  0
 17 22  1  0
 18 19  1  0
 19 20  1  0
 20 21  1  0
 21 22  1  0
M  END

> <chembl_id>
CHEMBL2441935

> <chembl_pref_name>
None

$$$$

     RDKit          2D

 26 28  0  0  0  0  0  0  0  0999 V2000
   -0.3708  -13.1292    0.0000 C   0  0  0  0  0  0  0  0  0  0  0  0
    0.4542  -13.1333    0.0000 C   0  0  0  0  0  0  0  0  0  0  0  0
    0.0453  -12.4168    0.0000 C   0  0  0  0  0  0  0  0  0  0  0  0
   -3.8306  -13.1333    0.0000 C   0  0  0  0  0  0  0  0  0  0  0  0
   -3.8318  -13.9607    0.0000 C   0  0  0  0  0  0  0  0  0  0  0  0
   -3.1169  -14.3735    0.0000 C   0  0  0  0  0  0  0  0  0  0  0  0
   -2.4005  -13.9602    0.0000 C   0  0  0  0  0  0  0  0  0  0  0  0
   -2.4034  -13.1297    0.0000 C   0  0  0  0  0  0  0  0  0  0  0  0
   -3.1187  -12.7205    0.0000 C   0  0  0  0  0  0  0  0  0  0  0  0
   -1.6854  -14.3716    0.0000 C   0  0  0  0  0  0  0  0  0  0  0  0
   -1.6841  -15.1966    0.0000 O   0  0  0  0  0  0  0  0  0  0  0  0
   -0.9716  -13.9579    0.0000 N   0  0  0  0  0  0  0  0  0  0  0  0
   -0.2564  -14.3693    0.0000 C   0  0  0  0  0  0  0  0  0  0  0  0
    0.4574  -13.9557    0.0000 C   0  0  0  0  0  0  0  0  0  0  0  0
    1.1731  -14.3738    0.0000 C   0  0  0  0  0  0  0  0  0  0  0  0
    1.8848  -13.9637    0.0000 C   0  0  0  0  0  0  0  0  0  0  0  0
    1.8877  -13.1383    0.0000 N   0  0  0  0  0  0  0  0  0  0  0  0
    1.1728  -12.7247    0.0000 C   0  0  0  0  0  0  0  0  0  0  0  0
   -3.1153  -15.1963    0.0000 C   0  0  0  0  0  0  0  0  0  0  0  0
   -3.8315  -15.6081    0.0000 C   0  0  0  0  0  0  0  0  0  0  0  0
   -3.8320  -16.4323    0.0000 C   0  0  0  0  0  0  0  0  0  0  0  0
   -3.1171  -16.8458    0.0000 C   0  0  0  0  0  0  0  0  0  0  0  0
   -2.4002  -16.4290    0.0000 C   0  0  0  0  0  0  0  0  0  0  0  0
   -2.4031  -15.6062    0.0000 C   0  0  0  0  0  0  0  0  0  0  0  0
   -4.5468  -16.8443    0.0000 Cl  0  0  0  0  0  0  0  0  0  0  0  0
   -3.1212  -11.8955    0.0000 Cl  0  0  0  0  0  0  0  0  0  0  0  0
  2  1  1  0
 13 14  1  0
 14 15  1  0
  7  8  1  0
  4  5  2  0
  8  9  2  0
  9  4  1  0
 14  2  1  0
 15 16  1  0
 16 17  1  0
 17 18  1  0
 18  2  1  0
  3  2  1  0
  7 10  1  0
 19 20  2  0
  5  6  1  0
 20 21  1  0
 10 11  2  0
 21 22  2  0
 22 23  1  0
 10 12  1  0
 23 24  2  0
 24 19  1  0
  6 19  1  0
  6  7  2  0
 21 25  1  0
 12 13  1  0
  9 26  1  0
M  END

> <chembl_id>
CHEMBL1082694

> <chembl_pref_name>
None

$$$$

     RDKit          2D

 29 32  0  0  0  0  0  0  0  0999 V2000
   -0.6403    3.1625    0.0000 O   0  0  0  0  0  0  0  0  0  0  0  0
    0.0742    0.2750    0.0000 O   0  0  0  0  0  0  0  0  0  0  0  0
   -4.2126   -0.5500    0.0000 O   0  0  0  0  0  0  0  0  0  0  0  0
   -4.8801   -3.5100    0.0000 O   0  0  0  0  0  0  0  0  0  0  0  0
   -0.6403    1.5125    0.0000 N   0  0  0  0  0  0  0  0  0  0  0  0
   -1.3547    0.2750    0.0000 N   0  0  0  0  0  0  0  0  0  0  0  0
   -3.4981   -1.7875    0.0000 N   0  0  0  0  0  0  0  0  0  0  0  0
    0.0742    1.9250    0.0000 C   0  0  0  0  0  0  0  0  0  0  0  0
   -0.6403    0.6875    0.0000 C   0  0  0  0  0  0  0  0  0  0  0  0
    0.0742    2.7500    0.0000 C   0  0  0  0  0  0  0  0  0  0  0  0
   -1.3547    1.9250    0.0000 C   0  0  0  0  0  0  0  0  0  0  0  0
   -1.3547    2.7500    0.0000 C   0  0  0  0  0  0  0  0  0  0  0  0
    0.7887    1.5125    0.0000 C   0  0  0  0  0  0  0  0  0  0  0  0
    0.7887    3.1625    0.0000 C   0  0  0  0  0  0  0  0  0  0  0  0
   -1.3547   -0.5500    0.0000 C   0  0  0  0  0  0  0  0  0  0  0  0
   -2.0692    0.6875    0.0000 C   0  0  0  0  0  0  0  0  0  0  0  0
   -2.7837   -0.5500    0.0000 C   0  0  0  0  0  0  0  0  0  0  0  0
    1.5032    1.9250    0.0000 C   0  0  0  0  0  0  0  0  0  0  0  0
   -2.0692   -0.9625    0.0000 C   0  0  0  0  0  0  0  0  0  0  0  0
   -2.7837    0.2750    0.0000 C   0  0  0  0  0  0  0  0  0  0  0  0
    1.5032    2.7500    0.0000 C   0  0  0  0  0  0  0  0  0  0  0  0
   -2.0692    3.1625    0.0000 C   0  0  0  0  0  0  0  0  0  0  0  0
   -3.4981   -0.9625    0.0000 C   0  0  0  0  0  0  0  0  0  0  0  0
   -4.2126   -3.0250    0.0000 C   0  0  0  0  0  0  0  0  0  0  0  0
   -4.2126   -2.2000    0.0000 C   0  0  0  0  0  0  0  0  0  0  0  0
   -2.7837    2.7500    0.0000 C   0  0  0  0  0  0  0  0  0  0  0  0
   -3.5452   -3.5100    0.0000 C   0  0  0  0  0  0  0  0  0  0  0  0
   -4.6251   -4.2946    0.0000 C   0  0  0  0  0  0  0  0  0  0  0  0
   -3.8001   -4.2946    0.0000 C   0  0  0  0  0  0  0  0  0  0  0  0
  1 10  1  0
  1 12  1  0
  2  9  2  0
  3 23  2  0
  4 24  1  0
  4 28  1  0
  5  8  1  0
  5  9  1  0
  5 11  1  0
  6  9  1  0
  6 15  1  0
  6 16  1  0
  7 23  1  0
  7 25  1  0
  8 10  2  0
  8 13  1  0
 10 14  1  0
 11 12  1  0
 12 22  1  0
 13 18  2  0
 14 21  2  0
 15 19  1  0
 16 20  1  0
 17 19  1  0
 17 20  1  0
 17 23  1  0
 18 21  1  0
 22 26  1  0
 24 25  1  0
 24 27  2  0
 27 29  1  0
 28 29  2  0
M  END

> <chembl_id>
CHEMBL1404694

> <chembl_pref_name>
None

$$$$

     RDKit          2D

 32 35  0  0  0  0  0  0  0  0999 V2000
    4.6614    0.9041    0.0000 Cl  0  0  0  0  0  0  0  0  0  0  0  0
    6.0903    0.0791    0.0000 Cl  0  0  0  0  0  0  0  0  0  0  0  0
    1.8035   -2.3959    0.0000 O   0  0  0  0  0  0  0  0  0  0  0  0
    3.2324    0.0791    0.0000 O   0  0  0  0  0  0  0  0  0  0  0  0
   -5.1305    0.6830    0.0000 O   0  0  0  0  0  0  0  0  0  0  0  0
    0.3044   -1.4133    0.0000 N   0  0  0  0  0  0  0  0  0  0  0  0
    2.5179   -1.1584    0.0000 N   0  0  0  0  0  0  0  0  0  0  0  0
    1.8035    0.0791    0.0000 N   0  0  0  0  0  0  0  0  0  0  0  0
    0.3044   -0.0785    0.0000 N   0  0  0  0  0  0  0  0  0  0  0  0
   -1.0055   -0.7459    0.0000 N   0  0  0  0  0  0  0  0  0  0  0  0
   -3.4805    0.6830    0.0000 N   0  0  0  0  0  0  0  0  0  0  0  0
    1.0890   -1.1584    0.0000 C   0  0  0  0  0  0  0  0  0  0  0  0
    1.0890   -0.3334    0.0000 C   0  0  0  0  0  0  0  0  0  0  0  0
    1.8035   -1.5709    0.0000 C   0  0  0  0  0  0  0  0  0  0  0  0
    2.5179   -0.3334    0.0000 C   0  0  0  0  0  0  0  0  0  0  0  0
   -0.1805   -0.7459    0.0000 C   0  0  0  0  0  0  0  0  0  0  0  0
    3.2324   -1.5709    0.0000 C   0  0  0  0  0  0  0  0  0  0  0  0
    3.9469   -1.1584    0.0000 C   0  0  0  0  0  0  0  0  0  0  0  0
    0.0494   -2.1980    0.0000 C   0  0  0  0  0  0  0  0  0  0  0  0
    1.8035    0.9041    0.0000 C   0  0  0  0  0  0  0  0  0  0  0  0
    3.9469   -0.3334    0.0000 C   0  0  0  0  0  0  0  0  0  0  0  0
    4.6614   -1.5709    0.0000 C   0  0  0  0  0  0  0  0  0  0  0  0
   -1.4180   -0.0314    0.0000 C   0  0  0  0  0  0  0  0  0  0  0  0
    4.6614    0.0791    0.0000 C   0  0  0  0  0  0  0  0  0  0  0  0
    5.3758   -0.3334    0.0000 C   0  0  0  0  0  0  0  0  0  0  0  0
    5.3758   -1.1584    0.0000 C   0  0  0  0  0  0  0  0  0  0  0  0
   -2.2430   -0.0314    0.0000 C   0  0  0  0  0  0  0  0  0  0  0  0
   -2.6555    0.6830    0.0000 C   0  0  0  0  0  0  0  0  0  0  0  0
   -3.8930    1.3975    0.0000 C   0  0  0  0  0  0  0  0  0  0  0  0
   -3.8930   -0.0314    0.0000 C   0  0  0  0  0  0  0  0  0  0  0  0
   -4.7180    1.3975    0.0000 C   0  0  0  0  0  0  0  0  0  0  0  0
   -4.7180   -0.0314    0.0000 C   0  0  0  0  0  0  0  0  0  0  0  0
  1 24  1  0
  2 25  1  0
  3 14  2  0
  4 15  2  0
  5 31  1  0
  5 32  1  0
  6 12  1  0
  6 16  1  0
  6 19  1  0
  7 14  1  0
  7 15  1  0
  7 17  1  0
  8 13  1  0
  8 15  1  0
  8 20  1  0
  9 13  1  0
  9 16  2  0
 10 16  1  0
 10 23  1  0
 11 28  1  0
 11 29  1  0
 11 30  1  0
 12 13  2  0
 12 14  1  0
 17 18  1  0
 18 21  1  0
 18 22  2  0
 21 24  2  0
 22 26  1  0
 23 27  1  0
 24 25  1  0
 25 26  2  0
 27 28  1  0
 29 31  1  0
 30 32  1  0
M  END

> <chembl_id>
CHEMBL1310694

> <chembl_pref_name>
None

$$$$

     RDKit          2D

 29 31  0  0  0  0  0  0  0  0999 V2000
    2.3757   -4.7602    0.0000 Cl  0  0  0  0  0  0  0  0  0  0  0  0
    1.6612   -1.8727    0.0000 O   0  0  0  0  0  0  0  0  0  0  0  0
   -2.6256   -3.5227    0.0000 O   0  0  0  0  0  0  0  0  0  0  0  0
   -4.0545   -4.3477    0.0000 O   0  0  0  0  0  0  0  0  0  0  0  0
   -1.1966   -4.3477    0.0000 O   0  0  0  0  0  0  0  0  0  0  0  0
   -0.4822   -3.1102    0.0000 N   0  0  0  0  0  0  0  0  0  0  0  0
    0.9468   -3.1102    0.0000 C   0  0  0  0  0  0  0  0  0  0  0  0
    0.2323   -3.5227    0.0000 C   0  0  0  0  0  0  0  0  0  0  0  0
    0.9468   -2.2852    0.0000 C   0  0  0  0  0  0  0  0  0  0  0  0
    0.2323   -1.8727    0.0000 C   0  0  0  0  0  0  0  0  0  0  0  0
    1.6612   -3.5227    0.0000 C   0  0  0  0  0  0  0  0  0  0  0  0
    0.2323   -4.3477    0.0000 C   0  0  0  0  0  0  0  0  0  0  0  0
    1.6612   -4.3477    0.0000 C   0  0  0  0  0  0  0  0  0  0  0  0
    0.9468   -4.7602    0.0000 C   0  0  0  0  0  0  0  0  0  0  0  0
   -1.1966   -3.5227    0.0000 C   0  0  0  0  0  0  0  0  0  0  0  0
   -3.3401   -3.1102    0.0000 C   0  0  0  0  0  0  0  0  0  0  0  0
   -4.0545   -3.5227    0.0000 C   0  0  0  0  0  0  0  0  0  0  0  0
   -0.4822   -2.2852    0.0000 C   0  0  0  0  0  0  0  0  0  0  0  0
    0.2323   -1.0477    0.0000 C   0  0  0  0  0  0  0  0  0  0  0  0
   -1.9111   -3.1102    0.0000 C   0  0  0  0  0  0  0  0  0  0  0  0
   -3.3401   -2.2852    0.0000 C   0  0  0  0  0  0  0  0  0  0  0  0
   -4.7690   -3.1102    0.0000 C   0  0  0  0  0  0  0  0  0  0  0  0
   -1.1966   -1.8727    0.0000 C   0  0  0  0  0  0  0  0  0  0  0  0
   -0.4822   -0.6352    0.0000 C   0  0  0  0  0  0  0  0  0  0  0  0
   -4.0545   -1.8727    0.0000 C   0  0  0  0  0  0  0  0  0  0  0  0
   -4.7690   -2.2852    0.0000 C   0  0  0  0  0  0  0  0  0  0  0  0
   -1.1966   -1.0477    0.0000 C   0  0  0  0  0  0  0  0  0  0  0  0
   -4.7690   -4.7602    0.0000 C   0  0  0  0  0  0  0  0  0  0  0  0
   -5.4835   -4.3477    0.0000 C   0  0  0  0  0  0  0  0  0  0  0  0
  1 13  1  0
  2  9  2  0
  3 16  1  0
  3 20  1  0
  4 17  1  0
  4 28  1  0
  5 15  2  0
  6  8  1  0
  6 15  1  0
  7  8  1  0
  7  9  1  0
  7 11  2  0
  8 12  2  0
  9 10  1  0
 10 18  2  0
 10 19  1  0
 11 13  1  0
 12 14  1  0
 13 14  2  0
 15 20  1  0
 16 17  1  0
 16 21  2  0
 17 22  2  0
 18 23  1  0
 19 24  2  0
 21 25  1  0
 22 26  1  0
 23 27  2  0
 24 27  1  0
 25 26  2  0
 28 29  1  0
M  END

> <chembl_id>
CHEMBL1440695

> <chembl_pref_name>
None

$$$$

     RDKit          2D

 22 24  0  0  0  0  0  0  0  0999 V2000
   -4.2394  -14.6024    0.0000 C   0  0  0  0  0  0  0  0  0  0  0  0
   -4.2412  -15.4315    0.0000 C   0  0  0  0  0  0  0  0  0  0  0  0
   -3.5241  -15.8458    0.0000 C   0  0  0  0  0  0  0  0  0  0  0  0
   -3.5268  -14.1902    0.0000 C   0  0  0  0  0  0  0  0  0  0  0  0
   -2.8131  -14.5969    0.0000 C   0  0  0  0  0  0  0  0  0  0  0  0
   -2.8119  -15.4252    0.0000 C   0  0  0  0  0  0  0  0  0  0  0  0
   -2.0940  -15.8366    0.0000 N   0  0  0  0  0  0  0  0  0  0  0  0
   -1.3829  -15.4194    0.0000 C   0  0  0  0  0  0  0  0  0  0  0  0
   -1.3901  -14.5906    0.0000 N   0  0  0  0  0  0  0  0  0  0  0  0
   -2.1025  -14.1868    0.0000 C   0  0  0  0  0  0  0  0  0  0  0  0
   -2.1050  -13.3613    0.0000 N   0  0  0  0  0  0  0  0  0  0  0  0
   -1.3980  -12.9418    0.0000 C   0  0  0  0  0  0  0  0  0  0  0  0
   -0.6851  -13.3550    0.0000 C   0  0  0  0  0  0  0  0  0  0  0  0
    0.0274  -12.9407    0.0000 C   0  0  0  0  0  0  0  0  0  0  0  0
    0.0256  -12.1139    0.0000 C   0  0  0  0  0  0  0  0  0  0  0  0
   -0.6977  -11.7040    0.0000 C   0  0  0  0  0  0  0  0  0  0  0  0
   -1.4058  -12.1240    0.0000 C   0  0  0  0  0  0  0  0  0  0  0  0
    0.7405  -11.6963    0.0000 O   0  0  0  0  0  0  0  0  0  0  0  0
    0.7322  -10.8749    0.0000 C   0  0  0  0  0  0  0  0  0  0  0  0
   -2.8206  -12.9491    0.0000 C   0  0  0  0  0  0  0  0  0  0  0  0
   -0.6681  -15.8332    0.0000 C   0  0  0  0  0  0  0  0  0  0  0  0
   -4.9491  -14.1895    0.0000 N   0  0  0  0  0  0  0  0  0  0  0  0
  1  2  2  0
  2  3  1  0
  3  6  2  0
  5  4  2  0
  4  1  1  0
  5  6  1  0
  6  7  1  0
  7  8  2  0
  8  9  1  0
  9 10  2  0
 10  5  1  0
 10 11  1  0
 11 12  1  0
 12 13  2  0
 13 14  1  0
 14 15  2  0
 15 16  1  0
 16 17  2  0
 17 12  1  0
 18 19  1  0
 15 18  1  0
 11 20  1  0
  8 21  1  0
  1 22  1  0
M  END

> <chembl_id>
CHEMBL1093694

> <chembl_pref_name>
None

$$$$

     RDKit          2D

 32 35  0  0  0  0  0  0  0  0999 V2000
   -2.7044    4.0994    0.0000 Br  0  0  0  0  0  0  0  0  0  0  0  0
   -2.7044    0.7994    0.0000 S   0  0  0  0  0  0  0  0  0  0  0  0
   -1.2754   -2.5006    0.0000 O   0  0  0  0  0  0  0  0  0  0  0  0
   -1.2754    0.7994    0.0000 O   0  0  0  0  0  0  0  0  0  0  0  0
   -3.5294    0.7994    0.0000 O   0  0  0  0  0  0  0  0  0  0  0  0
   -1.8794    0.7994    0.0000 O   0  0  0  0  0  0  0  0  0  0  0  0
   -2.7044   -1.6756    0.0000 N   0  0  0  0  0  0  0  0  0  0  0  0
   -2.7044   -0.0256    0.0000 N   0  0  0  0  0  0  0  0  0  0  0  0
   -3.5976   -2.6676    0.0000 N   0  0  0  0  0  0  0  0  0  0  0  0
   -1.9899   -1.2631    0.0000 C   0  0  0  0  0  0  0  0  0  0  0  0
   -1.9899   -0.4381    0.0000 C   0  0  0  0  0  0  0  0  0  0  0  0
   -1.2754   -1.6756    0.0000 C   0  0  0  0  0  0  0  0  0  0  0  0
   -1.2754   -0.0256    0.0000 C   0  0  0  0  0  0  0  0  0  0  0  0
   -0.5610   -1.2631    0.0000 C   0  0  0  0  0  0  0  0  0  0  0  0
   -0.5610   -0.4381    0.0000 C   0  0  0  0  0  0  0  0  0  0  0  0
   -2.7044    1.6244    0.0000 C   0  0  0  0  0  0  0  0  0  0  0  0
    0.1535   -1.6756    0.0000 C   0  0  0  0  0  0  0  0  0  0  0  0
    0.1535   -0.0256    0.0000 C   0  0  0  0  0  0  0  0  0  0  0  0
   -2.7906   -2.4961    0.0000 C   0  0  0  0  0  0  0  0  0  0  0  0
   -3.4580   -1.3401    0.0000 C   0  0  0  0  0  0  0  0  0  0  0  0
   -4.0101   -1.9532    0.0000 C   0  0  0  0  0  0  0  0  0  0  0  0
    0.8680   -1.2631    0.0000 C   0  0  0  0  0  0  0  0  0  0  0  0
    0.8680   -0.4381    0.0000 C   0  0  0  0  0  0  0  0  0  0  0  0
   -3.4188    2.0369    0.0000 C   0  0  0  0  0  0  0  0  0  0  0  0
   -1.9899    2.0369    0.0000 C   0  0  0  0  0  0  0  0  0  0  0  0
   -3.9331   -3.4213    0.0000 C   0  0  0  0  0  0  0  0  0  0  0  0
   -3.4188    2.8619    0.0000 C   0  0  0  0  0  0  0  0  0  0  0  0
   -1.9899    2.8619    0.0000 C   0  0  0  0  0  0  0  0  0  0  0  0
   -2.7044    3.2744    0.0000 C   0  0  0  0  0  0  0  0  0  0  0  0
   -3.4482   -4.0887    0.0000 C   0  0  0  0  0  0  0  0  0  0  0  0
   -3.7838   -4.8424    0.0000 C   0  0  0  0  0  0  0  0  0  0  0  0
   -3.2988   -5.5099    0.0000 C   0  0  0  0  0  0  0  0  0  0  0  0
  1 29  1  0
  2  5  2  0
  2  6  2  0
  2  8  1  0
  2 16  1  0
  3 12  2  0
  4 13  2  0
  7 10  1  0
  7 19  2  0
  7 20  1  0
  8 11  1  0
  9 19  1  0
  9 21  1  0
  9 26  1  0
 10 11  2  0
 10 12  1  0
 11 13  1  0
 12 14  1  0
 13 15  1  0
 14 15  1  0
 14 17  2  0
 15 18  2  0
 16 24  2  0
 16 25  1  0
 17 22  1  0
 18 23  1  0
 20 21  2  0
 22 23  2  0
 24 27  1  0
 25 28  2  0
 26 30  1  0
 27 29  2  0
 28 29  1  0
 30 31  1  0
 31 32  1  0
M  CHG  2   7   1   8  -1
M  END

> <chembl_id>
CHEMBL1520694

> <chembl_pref_name>
None

$$$$

     RDKit          2D

 26 29  0  0  0  0  0  0  0  0999 V2000
   -2.9317   -0.7746    0.0000 C   0  0  0  0  0  0  0  0  0  0  0  0
   -2.2177   -0.3623    0.0000 N   0  0  0  0  0  0  0  0  0  0  0  0
   -1.5036   -0.7746    0.0000 C   0  0  0  0  0  0  0  0  0  0  0  0
   -1.4999   -1.6007    0.0000 O   0  0  0  0  0  0  0  0  0  0  0  0
   -0.7858   -0.3639    0.0000 O   0  0  0  0  0  0  0  0  0  0  0  0
   -0.0734   -0.7791    0.0000 C   0  0  0  0  0  0  0  0  0  0  0  0
   -0.0810   -1.6043    0.0000 C   0  0  0  0  0  0  0  0  0  0  0  0
    0.6307   -2.0194    0.0000 C   0  0  0  0  0  0  0  0  0  0  0  0
    0.6358   -0.3698    0.0000 C   0  0  0  0  0  0  0  0  0  0  0  0
    1.3480   -0.7811    0.0000 C   0  0  0  0  0  0  0  0  0  0  0  0
    1.3499   -1.6074    0.0000 C   0  0  0  0  0  0  0  0  0  0  0  0
    2.1364   -1.8609    0.0000 N   0  0  0  0  0  0  0  0  0  0  0  0
    2.1332   -0.5239    0.0000 C   0  0  0  0  0  0  0  0  0  0  0  0
    2.6199   -1.1899    0.0000 C   0  0  0  0  0  0  0  0  0  0  0  0
    3.4038   -0.9330    0.0000 N   0  0  0  0  0  0  0  0  0  0  0  0
    3.4016   -0.1079    0.0000 C   0  0  0  0  0  0  0  0  0  0  0  0
    2.6164    0.1448    0.0000 C   0  0  0  0  0  0  0  0  0  0  0  0
    1.5450    0.0667    0.0000 C   0  0  0  0  0  0  0  0  0  0  0  0
    3.2024   -1.7698    0.0000 H   0  0  0  0  0  0  0  0  0  0  0  0
    2.3937   -2.6443    0.0000 C   0  0  0  0  0  0  0  0  0  0  0  0
    4.0722   -1.4159    0.0000 C   0  0  0  0  0  0  0  0  0  0  0  0
   -3.6456   -0.3601    0.0000 C   0  0  0  0  0  0  0  0  0  0  0  0
   -4.3576   -0.7689    0.0000 C   0  0  0  0  0  0  0  0  0  0  0  0
   -4.3618   -1.5937    0.0000 C   0  0  0  0  0  0  0  0  0  0  0  0
   -3.6479   -2.0082    0.0000 C   0  0  0  0  0  0  0  0  0  0  0  0
   -2.9298   -1.5978    0.0000 C   0  0  0  0  0  0  0  0  0  0  0  0
 13 10  1  0
 13 14  1  0
  1  2  1  0
  6  7  2  0
  7  8  1  0
  8 11  2  0
 14 15  1  0
 15 16  1  0
 16 17  1  0
 17 13  1  0
  3  4  2  0
 13 18  1  1
 10  9  2  0
 14 19  1  1
  9  6  1  0
 12 20  1  0
 10 11  1  0
 15 21  1  0
  1 22  1  0
  3  5  1  0
  2  3  1  0
  5  6  1  0
 11 12  1  0
 12 14  1  0
  1 26  1  0
 22 23  1  0
 23 24  1  0
 24 25  1  0
 25 26  1  0
M  END

> <chembl_id>
CHEMBL1080692

> <chembl_pref_name>
None

$$$$

     RDKit          2D

 37 39  0  0  0  0  0  0  0  0999 V2000
   10.9542   -7.4708    0.0000 N   0  0  0  0  0  0  0  0  0  0  0  0
   10.9542   -8.2958    0.0000 C   0  0  0  0  0  0  0  0  0  0  0  0
   11.6662   -8.7042    0.0000 N   0  0  0  0  0  0  0  0  0  0  0  0
   11.6662   -7.0542    0.0000 C   0  0  0  0  0  0  0  0  0  0  0  0
   10.2403   -8.7094    0.0000 C   0  0  0  0  0  0  0  0  0  0  0  0
   11.6662   -6.2292    0.0000 O   0  0  0  0  0  0  0  0  0  0  0  0
   12.3782   -7.4708    0.0000 C   0  0  0  0  0  0  0  0  0  0  0  0
   12.3766   -8.2940    0.0000 C   0  0  0  0  0  0  0  0  0  0  0  0
   13.0875   -8.7052    0.0000 C   0  0  0  0  0  0  0  0  0  0  0  0
   13.8006   -8.2943    0.0000 C   0  0  0  0  0  0  0  0  0  0  0  0
   13.7982   -7.4680    0.0000 C   0  0  0  0  0  0  0  0  0  0  0  0
   13.0867   -7.0606    0.0000 C   0  0  0  0  0  0  0  0  0  0  0  0
   14.5114   -7.0532    0.0000 C   0  0  0  0  0  0  0  0  0  0  0  0
   15.2271   -7.4634    0.0000 N   0  0  0  0  0  0  0  0  0  0  0  0
   15.9403   -7.0487    0.0000 C   0  0  0  0  0  0  0  0  0  0  0  0
   16.6575   -7.4613    0.0000 C   0  0  0  0  0  0  0  0  0  0  0  0
   17.3701   -7.0472    0.0000 C   0  0  0  0  0  0  0  0  0  0  0  0
   17.3679   -6.2213    0.0000 C   0  0  0  0  0  0  0  0  0  0  0  0
   16.6471   -5.8113    0.0000 C   0  0  0  0  0  0  0  0  0  0  0  0
   15.9374   -6.2277    0.0000 C   0  0  0  0  0  0  0  0  0  0  0  0
   18.0805   -5.8056    0.0000 C   0  0  0  0  0  0  0  0  0  0  0  0
   18.0768   -4.9806    0.0000 O   0  0  0  0  0  0  0  0  0  0  0  0
   18.7933   -6.2123    0.0000 N   0  0  0  0  0  0  0  0  0  0  0  0
   19.5057   -5.7962    0.0000 C   0  0  0  0  0  0  0  0  0  0  0  0
   20.2222   -6.2051    0.0000 C   0  0  0  0  0  0  0  0  0  0  0  0
   19.5015   -4.9712    0.0000 C   0  0  0  0  0  0  0  0  0  0  0  0
   20.2136   -4.5546    0.0000 O   0  0  0  0  0  0  0  0  0  0  0  0
   18.7847   -4.5618    0.0000 O   0  0  0  0  0  0  0  0  0  0  0  0
   20.9346   -5.7890    0.0000 C   0  0  0  0  0  0  0  0  0  0  0  0
   21.6511   -6.1979    0.0000 C   0  0  0  0  0  0  0  0  0  0  0  0
   21.6562   -7.0241    0.0000 O   0  0  0  0  0  0  0  0  0  0  0  0
   22.3645   -5.7830    0.0000 O   0  0  0  0  0  0  0  0  0  0  0  0
   15.2298   -8.2884    0.0000 C   0  0  0  0  0  0  0  0  0  0  0  0
   15.9456   -8.6987    0.0000 C   0  0  0  0  0  0  0  0  0  0  0  0
   15.9482   -9.5236    0.0000 C   0  0  0  0  0  0  0  0  0  0  0  0
   16.6640   -9.9339    0.0000 O   0  0  0  0  0  0  0  0  0  0  0  0
   17.3771   -9.5191    0.0000 C   0  0  0  0  0  0  0  0  0  0  0  0
 17 18  2  0
  8  9  1  0
 18 19  1  0
  7  4  1  0
 19 20  2  0
 20 15  1  0
  9 10  2  0
 18 21  1  0
 21 22  2  0
 10 11  1  0
 21 23  1  0
  2  5  1  0
 23 24  1  0
 11 12  2  0
 24 25  1  6
 12  7  1  0
 24 26  1  0
  1  2  1  0
 11 13  1  0
 26 27  1  0
 26 28  2  0
  4  6  2  0
 25 29  1  0
 13 14  1  0
 29 30  1  0
  1  4  1  0
 14 15  1  0
 30 31  1  0
 30 32  2  0
  2  3  2  0
 14 33  1  0
 15 16  2  0
 33 34  1  0
  7  8  2  0
 34 35  1  0
 16 17  1  0
 35 36  1  0
  3  8  1  0
 36 37  1  0
M  END

> <chembl_id>
CHEMBL104694

> <chembl_pref_name>
None

$$$$

     RDKit          2D

 40 44  0  0  0  0  0  0  0  0999 V2000
   -1.7546  -12.9756    0.0000 N   0  0  0  0  0  0  0  0  0  0  0  0
   -1.0405  -12.5601    0.0000 C   0  0  0  0  0  0  0  0  0  0  0  0
   -1.0419  -11.7340    0.0000 N   0  0  0  0  0  0  0  0  0  0  0  0
   -1.7575  -11.3233    0.0000 C   0  0  0  0  0  0  0  0  0  0  0  0
   -2.4715  -11.7389    0.0000 C   0  0  0  0  0  0  0  0  0  0  0  0
   -3.1869  -11.3282    0.0000 C   0  0  0  0  0  0  0  0  0  0  0  0
   -3.9010  -11.7438    0.0000 C   0  0  0  0  0  0  0  0  0  0  0  0
   -3.8975  -12.5663    0.0000 C   0  0  0  0  0  0  0  0  0  0  0  0
   -3.1819  -12.9769    0.0000 C   0  0  0  0  0  0  0  0  0  0  0  0
   -2.4700  -12.5650    0.0000 C   0  0  0  0  0  0  0  0  0  0  0  0
   -3.1883  -10.5021    0.0000 O   0  0  0  0  0  0  0  0  0  0  0  0
   -4.7094  -12.4250    0.0000 C   0  0  0  0  0  0  0  0  0  0  0  0
   -4.1760  -13.3452    0.0000 C   0  0  0  0  0  0  0  0  0  0  0  0
   -0.3300  -11.3220    0.0000 C   0  0  0  0  0  0  0  0  0  0  0  0
    0.3855  -11.7327    0.0000 C   0  0  0  0  0  0  0  0  0  0  0  0
    1.0995  -11.3171    0.0000 C   0  0  0  0  0  0  0  0  0  0  0  0
    1.0981  -10.4910    0.0000 C   0  0  0  0  0  0  0  0  0  0  0  0
    0.3827  -10.0804    0.0000 C   0  0  0  0  0  0  0  0  0  0  0  0
   -0.3314  -10.4959    0.0000 C   0  0  0  0  0  0  0  0  0  0  0  0
    1.8101  -10.0791    0.0000 O   0  0  0  0  0  0  0  0  0  0  0  0
   -1.7511  -13.7981    0.0000 C   0  0  0  0  0  0  0  0  0  0  0  0
   -2.4651  -14.2137    0.0000 C   0  0  0  0  0  0  0  0  0  0  0  0
   -2.4636  -15.0398    0.0000 C   0  0  0  0  0  0  0  0  0  0  0  0
   -1.7482  -15.4504    0.0000 C   0  0  0  0  0  0  0  0  0  0  0  0
   -1.0341  -15.0349    0.0000 C   0  0  0  0  0  0  0  0  0  0  0  0
   -1.0355  -14.2088    0.0000 C   0  0  0  0  0  0  0  0  0  0  0  0
   -1.7447  -16.2729    0.0000 Cl  0  0  0  0  0  0  0  0  0  0  0  0
    2.5249  -10.4910    0.0000 C   0  0  0  0  0  0  0  0  0  0  0  0
    3.2389  -10.0778    0.0000 C   0  0  0  0  0  0  0  0  0  0  0  0
    3.9537  -10.4897    0.0000 N   0  0  0  0  0  0  0  0  0  0  0  0
    3.2381   -9.2529    0.0000 O   0  0  0  0  0  0  0  0  0  0  0  0
    4.6677  -10.0765    0.0000 N   0  0  0  0  0  0  0  0  0  0  0  0
    5.3825  -10.4884    0.0000 C   0  0  0  0  0  0  0  0  0  0  0  0
    6.0966  -10.0753    0.0000 C   0  0  0  0  0  0  0  0  0  0  0  0
    6.8094  -10.4906    0.0000 C   0  0  0  0  0  0  0  0  0  0  0  0
    7.5229  -10.0781    0.0000 C   0  0  0  0  0  0  0  0  0  0  0  0
    7.5226   -9.2524    0.0000 C   0  0  0  0  0  0  0  0  0  0  0  0
    6.8029   -8.8407    0.0000 C   0  0  0  0  0  0  0  0  0  0  0  0
    6.0922   -9.2555    0.0000 C   0  0  0  0  0  0  0  0  0  0  0  0
    6.8080  -11.3155    0.0000 Cl  0  0  0  0  0  0  0  0  0  0  0  0
  8 12  1  0
  8 13  1  0
 14 15  1  0
 15 16  2  0
 16 17  1  0
 17 18  2  0
 18 19  1  0
 14 19  2  0
 17 20  1  0
  3 14  1  0
 21 22  1  0
 22 23  2  0
 23 24  1  0
 24 25  2  0
 25 26  1  0
 21 26  2  0
 24 27  1  0
  1 21  1  0
 20 28  1  0
  1  2  1  0
 28 29  1  0
  2  3  1  0
 29 30  1  0
  3  4  1  0
 29 31  2  0
  4  5  1  0
 30 32  1  0
  5  6  1  0
 32 33  2  0
  6  7  1  0
 33 34  1  0
  7  8  1  0
 34 35  2  0
  8  9  1  0
 35 36  1  0
  9 10  1  0
 36 37  2  0
  1 10  1  0
 37 38  1  0
  5 10  2  0
 38 39  2  0
 39 34  1  0
  6 11  2  0
 35 40  1  0
M  END

> <chembl_id>
CHEMBL1290694

> <chembl_pref_name>
None

$$$$

     RDKit          2D

 36 39  0  0  0  0  0  0  0  0999 V2000
    5.4375   -1.1542    0.0000 N   0  0  0  0  0  0  0  0  0  0  0  0
    4.6500   -1.4042    0.0000 C   0  0  0  0  0  0  0  0  0  0  0  0
    2.5292   -0.9417    0.0000 C   0  0  0  0  0  0  0  0  0  0  0  0
    3.2500   -1.3542    0.0000 N   0  0  0  0  0  0  0  0  0  0  0  0
    3.9625   -0.9417    0.0000 C   0  0  0  0  0  0  0  0  0  0  0  0
    6.8042   -1.5667    0.0000 C   0  0  0  0  0  0  0  0  0  0  0  0
    8.1750   -1.9750    0.0000 C   0  0  0  0  0  0  0  0  0  0  0  0
    7.3667   -2.1667    0.0000 N   0  0  0  0  0  0  0  0  0  0  0  0
    6.0000   -1.7542    0.0000 C   0  0  0  0  0  0  0  0  0  0  0  0
    1.8167   -1.3625    0.0000 C   0  0  0  0  0  0  0  0  0  0  0  0
    4.5292   -2.2167    0.0000 O   0  0  0  0  0  0  0  0  0  0  0  0
    8.7375   -2.5792    0.0000 C   0  0  0  0  0  0  0  0  0  0  0  0
    2.5292   -0.1167    0.0000 O   0  0  0  0  0  0  0  0  0  0  0  0
    8.4042   -1.1875    0.0000 C   0  0  0  0  0  0  0  0  0  0  0  0
    0.3917   -2.1917    0.0000 C   0  0  0  0  0  0  0  0  0  0  0  0
    7.0417   -0.7750    0.0000 O   0  0  0  0  0  0  0  0  0  0  0  0
    1.8167   -2.1917    0.0000 C   0  0  0  0  0  0  0  0  0  0  0  0
    1.1042   -0.9500    0.0000 C   0  0  0  0  0  0  0  0  0  0  0  0
    1.1042   -2.6042    0.0000 C   0  0  0  0  0  0  0  0  0  0  0  0
    0.3917   -1.3625    0.0000 C   0  0  0  0  0  0  0  0  0  0  0  0
   -0.3208   -2.6042    0.0000 C   0  0  0  0  0  0  0  0  0  0  0  0
    9.5375   -2.3875    0.0000 C   0  0  0  0  0  0  0  0  0  0  0  0
    9.2042   -0.9917    0.0000 C   0  0  0  0  0  0  0  0  0  0  0  0
    5.7292   -0.3792    0.0000 C   0  0  0  0  0  0  0  0  0  0  0  0
    9.7750   -1.5917    0.0000 C   0  0  0  0  0  0  0  0  0  0  0  0
   10.2417   -0.0125    0.0000 N   0  0  0  0  0  0  0  0  0  0  0  0
    3.9000   -0.1167    0.0000 C   0  0  0  0  0  0  0  0  0  0  0  0
    9.4375   -0.2042    0.0000 C   0  0  0  0  0  0  0  0  0  0  0  0
    8.4917   -3.3667    0.0000 C   0  0  0  0  0  0  0  0  0  0  0  0
   -1.0375   -2.1875    0.0000 C   0  0  0  0  0  0  0  0  0  0  0  0
   -0.3208   -3.4250    0.0000 C   0  0  0  0  0  0  0  0  0  0  0  0
    5.3125    0.3333    0.0000 C   0  0  0  0  0  0  0  0  0  0  0  0
    4.4917    0.4458    0.0000 C   0  0  0  0  0  0  0  0  0  0  0  0
   -1.0333   -3.8375    0.0000 C   0  0  0  0  0  0  0  0  0  0  0  0
   -1.7500   -2.6000    0.0000 C   0  0  0  0  0  0  0  0  0  0  0  0
   -1.7500   -3.4250    0.0000 C   0  0  0  0  0  0  0  0  0  0  0  0
  2  1  1  0
  3  4  1  0
  4  5  1  0
  5  2  1  0
  6  9  1  0
  7  8  1  0
  8  6  1  0
  9  1  1  0
 10  3  1  0
 11  2  2  0
 12  7  2  0
 13  3  2  0
 14  7  1  0
 15 20  2  0
 16  6  2  0
 17 10  1  0
 18 10  2  0
 19 17  2  0
 20 18  1  0
 21 15  1  0
 22 12  1  0
 23 14  2  0
 24  1  1  0
 25 23  1  0
 26 28  1  0
 27  5  1  0
 28 23  1  0
 29 12  1  0
 30 21  2  0
 31 21  1  0
 32 24  1  0
 33 32  1  0
 34 31  2  0
 35 30  1  0
 36 34  1  0
 33 27  1  0
 25 22  2  0
 15 19  1  0
 36 35  2  0
M  END

> <chembl_id>
CHEMBL104064

> <chembl_pref_name>
None

$$$$

     RDKit          2D

 98103  0  0  0  0  0  0  0  0999 V2000
   -1.0866   -5.3934    0.0000 Cl  0  0  0  0  0  0  0  0  0  0  0  0
   12.8860   -0.8079    0.0000 C   0  0  0  0  0  0  0  0  0  0  0  0
   13.2502   -2.2017    0.0000 C   0  0  0  0  0  0  0  0  0  0  0  0
   11.1509   -1.8262    0.0000 C   0  0  0  0  0  0  0  0  0  0  0  0
   12.6699   -1.6214    0.0000 C   0  0  0  0  0  0  0  0  0  0  0  0
   11.1509   -0.3926    0.0000 C   0  0  0  0  0  0  0  0  0  0  0  0
   11.5718   -1.1094    0.0000 C   0  0  0  0  0  0  0  0  0  0  0  0
   12.6642   -0.0057    0.0000 C   0  0  0  0  0  0  0  0  0  0  0  0
   11.9531   -2.0310    0.0000 C   0  0  0  0  0  0  0  0  0  0  0  0
   11.5718    0.3243    0.0000 C   0  0  0  0  0  0  0  0  0  0  0  0
    7.6520   -1.1151    0.0000 C   0  0  0  0  0  0  0  0  0  0  0  0
   10.3259   -0.3926    0.0000 C   0  0  0  0  0  0  0  0  0  0  0  0
   10.3316   -1.8262    0.0000 C   0  0  0  0  0  0  0  0  0  0  0  0
    8.3689   -0.6998    0.0000 C   0  0  0  0  0  0  0  0  0  0  0  0
    9.9220   -1.1094    0.0000 C   0  0  0  0  0  0  0  0  0  0  0  0
    8.3689   -2.3440    0.0000 C   0  0  0  0  0  0  0  0  0  0  0  0
   13.6769   -0.5974    0.0000 C   0  0  0  0  0  0  0  0  0  0  0  0
    7.6520   -1.9344    0.0000 O   0  0  0  0  0  0  0  0  0  0  0  0
   14.0524   -1.9856    0.0000 C   0  0  0  0  0  0  0  0  0  0  0  0
    6.9352    0.1308    0.0000 N   0  0  0  0  0  0  0  0  0  0  0  0
   11.9985   -2.8162    0.0000 O   0  0  0  0  0  0  0  0  0  0  0  0
    6.9352   -0.7055    0.0000 C   0  0  0  0  0  0  0  0  0  0  0  0
    6.2183    0.5404    0.0000 C   0  0  0  0  0  0  0  0  0  0  0  0
    4.8359   -6.0477    0.0000 C   0  0  0  0  0  0  0  0  0  0  0  0
   11.3500   -3.2428    0.0000 C   0  0  0  0  0  0  0  0  0  0  0  0
    2.7138   -5.6551    0.0000 C   0  0  0  0  0  0  0  0  0  0  0  0
    9.0857   -1.1094    0.0000 O   0  0  0  0  0  0  0  0  0  0  0  0
    3.4193   -6.0590    0.0000 N   0  0  0  0  0  0  0  0  0  0  0  0
   13.4663   -2.9926    0.0000 C   0  0  0  0  0  0  0  0  0  0  0  0
   14.2685   -1.1834    0.0000 C   0  0  0  0  0  0  0  0  0  0  0  0
    5.5527   -5.6380    0.0000 N   0  0  0  0  0  0  0  0  0  0  0  0
   12.8348   -2.9072    0.0000 O   0  0  0  0  0  0  0  0  0  0  0  0
   14.2685   -2.7820    0.0000 O   0  0  0  0  0  0  0  0  0  0  0  0
    4.1304   -5.6380    0.0000 C   0  0  0  0  0  0  0  0  0  0  0  0
   11.2704    1.1037    0.0000 O   0  0  0  0  0  0  0  0  0  0  0  0
    6.9693   -5.6323    0.0000 C   0  0  0  0  0  0  0  0  0  0  0  0
    8.3689   -3.1632    0.0000 N   0  0  0  0  0  0  0  0  0  0  0  0
    6.2638   -6.0477    0.0000 C   0  0  0  0  0  0  0  0  0  0  0  0
   13.2331   -3.6354    0.0000 C   0  0  0  0  0  0  0  0  0  0  0  0
   11.7824    1.7409    0.0000 C   0  0  0  0  0  0  0  0  0  0  0  0
   13.2615    0.5632    0.0000 O   0  0  0  0  0  0  0  0  0  0  0  0
    9.0800   -1.9344    0.0000 O   0  0  0  0  0  0  0  0  0  0  0  0
    8.3689    0.1308    0.0000 O   0  0  0  0  0  0  0  0  0  0  0  0
    1.2858   -5.6551    0.0000 N   0  0  0  0  0  0  0  0  0  0  0  0
    5.5015    0.1195    0.0000 O   0  0  0  0  0  0  0  0  0  0  0  0
    4.8472   -6.8669    0.0000 O   0  0  0  0  0  0  0  0  0  0  0  0
   10.8379   -3.0608    0.0000 O   0  0  0  0  0  0  0  0  0  0  0  0
    2.7024   -4.8359    0.0000 O   0  0  0  0  0  0  0  0  0  0  0  0
   10.8379   -2.4407    0.0000 O   0  0  0  0  0  0  0  0  0  0  0  0
    4.1190   -4.8301    0.0000 C   0  0  0  0  0  0  0  0  0  0  0  0
    6.2126    1.3597    0.0000 C   0  0  0  0  0  0  0  0  0  0  0  0
   11.3898   -4.0166    0.0000 C   0  0  0  0  0  0  0  0  0  0  0  0
    2.0026   -6.0647    0.0000 C   0  0  0  0  0  0  0  0  0  0  0  0
    6.2183   -1.1151    0.0000 C   0  0  0  0  0  0  0  0  0  0  0  0
    4.8529   -9.3247    0.0000 N   0  0  0  0  0  0  0  0  0  0  0  0
    7.6804   -6.0306    0.0000 O   0  0  0  0  0  0  0  0  0  0  0  0
   11.4865    2.5203    0.0000 O   0  0  0  0  0  0  0  0  0  0  0  0
   14.0694   -3.6411    0.0000 O   0  0  0  0  0  0  0  0  0  0  0  0
    6.9636   -4.8131    0.0000 N   0  0  0  0  0  0  0  0  0  0  0  0
   13.4721   -0.2105    0.0000 C   0  0  0  0  0  0  0  0  0  0  0  0
   14.2572    0.0000    0.0000 O   0  0  0  0  0  0  0  0  0  0  0  0
   12.3627   -1.3142    0.0000 C   0  0  0  0  0  0  0  0  0  0  0  0
   12.1579   -0.5120    0.0000 C   0  0  0  0  0  0  0  0  0  0  0  0
    9.9049    0.3243    0.0000 C   0  0  0  0  0  0  0  0  0  0  0  0
    3.7094   -4.1133    0.0000 C   0  0  0  0  0  0  0  0  0  0  0  0
    7.6691   -4.3921    0.0000 C   0  0  0  0  0  0  0  0  0  0  0  0
    7.6691   -3.5729    0.0000 C   0  0  0  0  0  0  0  0  0  0  0  0
    4.8529   -8.5054    0.0000 C   0  0  0  0  0  0  0  0  0  0  0  0
   12.6016    1.6214    0.0000 C   0  0  0  0  0  0  0  0  0  0  0  0
   12.8178   -4.3409    0.0000 C   0  0  0  0  0  0  0  0  0  0  0  0
    9.0857   -3.5729    0.0000 C   0  0  0  0  0  0  0  0  0  0  0  0
    6.2638   -6.8669    0.0000 C   0  0  0  0  0  0  0  0  0  0  0  0
    6.9295    1.7864    0.0000 C   0  0  0  0  0  0  0  0  0  0  0  0
    5.4958    1.7693    0.0000 C   0  0  0  0  0  0  0  0  0  0  0  0
   10.7413   -4.4433    0.0000 C   0  0  0  0  0  0  0  0  0  0  0  0
   12.0896   -4.3580    0.0000 C   0  0  0  0  0  0  0  0  0  0  0  0
    6.2183   -1.9514    0.0000 C   0  0  0  0  0  0  0  0  0  0  0  0
    5.5015   -0.7055    0.0000 C   0  0  0  0  0  0  0  0  0  0  0  0
    2.0026   -6.8840    0.0000 C   0  0  0  0  0  0  0  0  0  0  0  0
    4.1133   -3.3965    0.0000 C   0  0  0  0  0  0  0  0  0  0  0  0
    2.8844   -4.1190    0.0000 C   0  0  0  0  0  0  0  0  0  0  0  0
    5.5640   -8.0958    0.0000 C   0  0  0  0  0  0  0  0  0  0  0  0
    5.5527   -7.2765    0.0000 C   0  0  0  0  0  0  0  0  0  0  0  0
   10.7867   -5.2227    0.0000 C   0  0  0  0  0  0  0  0  0  0  0  0
   12.1351   -5.1374    0.0000 C   0  0  0  0  0  0  0  0  0  0  0  0
    6.9295    2.6056    0.0000 C   0  0  0  0  0  0  0  0  0  0  0  0
    5.4958    2.5943    0.0000 C   0  0  0  0  0  0  0  0  0  0  0  0
    4.7847   -1.1151    0.0000 C   0  0  0  0  0  0  0  0  0  0  0  0
    5.5015   -2.3611    0.0000 C   0  0  0  0  0  0  0  0  0  0  0  0
    2.4635   -3.4193    0.0000 C   0  0  0  0  0  0  0  0  0  0  0  0
    3.6923   -2.6853    0.0000 C   0  0  0  0  0  0  0  0  0  0  0  0
    4.7847   -1.9514    0.0000 C   0  0  0  0  0  0  0  0  0  0  0  0
    2.8674   -2.6967    0.0000 C   0  0  0  0  0  0  0  0  0  0  0  0
    6.2013    3.0152    0.0000 C   0  0  0  0  0  0  0  0  0  0  0  0
   11.4865   -5.5698    0.0000 C   0  0  0  0  0  0  0  0  0  0  0  0
   12.5276   -2.1505    0.0000 H   0  0  0  0  0  0  0  0  0  0  0  0
   14.8774   -1.9848    0.0000 C   0  0  0  0  0  0  0  0  0  0  0  0
    4.9325  -10.8038    0.0000 Cl  0  0  0  0  0  0  0  0  0  0  0  0
  3  5  1  0
  4  9  1  0
  5  2  1  0
  6 10  1  0
  7  6  1  0
  8  2  1  0
  9  5  1  0
 10  8  1  0
 11 14  1  0
 12  6  2  0
 13  4  1  0
 14 27  1  0
 15 12  1  0
 16 18  1  0
 17  2  1  0
 11 18  1  6
 19 30  1  0
 20 22  1  0
  9 21  1  6
 22 11  1  0
 23 20  1  0
 24 31  1  0
 25 21  1  0
 26 28  1  0
 15 27  1  6
 28 34  1  0
  3 29  1  0
 30 17  1  0
 31 38  1  0
  3 32  1  6
 19 33  1  0
 34 24  1  0
 10 35  1  1
 36 59  1  0
 37 16  1  0
 38 36  1  0
 39 32  1  0
 40 35  1  0
 41  8  2  0
 42 16  2  0
 43 14  2  0
 44 53  1  0
 45 23  2  0
 46 24  2  0
 47 25  2  0
 48 26  2  0
  4 49  1  1
 34 50  1  1
 51 23  1  0
 52 25  1  0
 53 26  1  0
 54 22  1  0
 55 68  1  0
 56 36  2  0
 57 40  2  0
 58 39  2  0
 59 66  1  0
  2 60  1  1
 17 61  1  1
  7 62  1  0
  7 63  1  0
 64 12  1  0
 65 50  1  0
 66 67  1  0
 67 37  1  0
 68 82  1  0
 69 40  1  0
 70 39  1  0
 71 37  1  0
 38 72  1  6
 73 51  2  0
 74 51  1  0
 75 52  2  0
 76 52  1  0
 77 54  1  0
 78 54  2  0
 53 79  1  1
 80 65  2  0
 81 65  1  0
 82 83  1  0
 83 72  1  0
 84 75  1  0
 85 76  2  0
 86 73  1  0
 87 74  2  0
 88 78  1  0
 89 77  2  0
 90 81  2  0
 91 80  1  0
 92 88  2  0
 93 90  1  0
 94 87  1  0
 95 85  1  0
  5 96  1  6
 19  3  1  0
 29 33  1  0
  7  4  1  0
 15 13  1  0
 95 84  2  0
 89 92  1  0
 94 86  2  0
 93 91  2  0
 19 97  1  6
M  END

> <chembl_id>
CHEMBL3037900

> <chembl_pref_name>
None

$$$$

     RDKit          2D

 31 33  0  0  0  0  0  0  0  0999 V2000
    9.9606  -15.2481    0.0000 N   0  0  0  0  0  0  0  0  0  0  0  0
    9.9643  -14.4231    0.0000 C   0  0  0  0  0  0  0  0  0  0  0  0
    9.2517  -14.0074    0.0000 C   0  0  0  0  0  0  0  0  0  0  0  0
    9.2554  -13.1824    0.0000 C   0  0  0  0  0  0  0  0  0  0  0  0
   10.6732  -15.6638    0.0000 C   0  0  0  0  0  0  0  0  0  0  0  0
   10.6695  -16.4888    0.0000 N   0  0  0  0  0  0  0  0  0  0  0  0
   11.3895  -15.2545    0.0000 N   0  0  0  0  0  0  0  0  0  0  0  0
    9.9717  -12.7731    0.0000 C   0  0  0  0  0  0  0  0  0  0  0  0
   10.6843  -13.1889    0.0000 C   0  0  0  0  0  0  0  0  0  0  0  0
    9.9768  -11.9443    0.0000 N   0  0  0  0  0  0  0  0  0  0  0  0
    9.2595  -11.5366    0.0000 C   0  0  0  0  0  0  0  0  0  0  0  0
    8.5479  -11.9539    0.0000 O   0  0  0  0  0  0  0  0  0  0  0  0
    9.2539  -10.7116    0.0000 O   0  0  0  0  0  0  0  0  0  0  0  0
    7.8306  -11.5463    0.0000 C   0  0  0  0  0  0  0  0  0  0  0  0
    7.1190  -11.9636    0.0000 C   0  0  0  0  0  0  0  0  0  0  0  0
    6.3983  -11.5522    0.0000 C   0  0  0  0  0  0  0  0  0  0  0  0
    5.6884  -11.9681    0.0000 C   0  0  0  0  0  0  0  0  0  0  0  0
    5.6933  -12.7941    0.0000 C   0  0  0  0  0  0  0  0  0  0  0  0
    6.4207  -13.1985    0.0000 C   0  0  0  0  0  0  0  0  0  0  0  0
    7.1228  -12.7832    0.0000 C   0  0  0  0  0  0  0  0  0  0  0  0
   10.6806  -14.0138    0.0000 O   0  0  0  0  0  0  0  0  0  0  0  0
   11.4007  -12.7796    0.0000 C   0  0  0  0  0  0  0  0  0  0  0  0
   12.1523  -13.1178    0.0000 N   0  0  0  0  0  0  0  0  0  0  0  0
   11.4901  -11.9588    0.0000 N   0  0  0  0  0  0  0  0  0  0  0  0
   12.2978  -11.7908    0.0000 C   0  0  0  0  0  0  0  0  0  0  0  0
   12.7056  -12.5072    0.0000 C   0  0  0  0  0  0  0  0  0  0  0  0
   13.5281  -12.5113    0.0000 C   0  0  0  0  0  0  0  0  0  0  0  0
   13.9437  -11.7996    0.0000 C   0  0  0  0  0  0  0  0  0  0  0  0
   13.5309  -11.0824    0.0000 C   0  0  0  0  0  0  0  0  0  0  0  0
   12.7097  -11.0819    0.0000 C   0  0  0  0  0  0  0  0  0  0  0  0
   12.3209  -13.9254    0.0000 C   0  0  0  0  0  0  0  0  0  0  0  0
 15 16  2  0
 16 17  1  0
  8  9  1  0
 17 18  2  0
  1  5  1  0
 18 19  1  0
  8 10  1  6
 19 20  2  0
 20 15  1  0
  2  3  1  0
  9 21  2  0
 10 11  1  0
  9 22  1  0
 22 23  1  0
  5  6  2  0
 11 12  1  0
 23 26  1  0
 25 24  1  0
 24 22  2  0
  1  2  1  0
 11 13  2  0
 25 26  2  0
  5  7  1  0
 26 27  1  0
 12 14  1  0
 27 28  2  0
  3  4  1  0
 28 29  1  0
 14 15  1  0
 29 30  2  0
 30 25  1  0
  4  8  1  0
 23 31  1  0
M  END

> <chembl_id>
CHEMBL1079694

> <chembl_pref_name>
None

$$$$

     RDKit          2D

 31 36  0  0  0  0  0  0  0  0999 V2000
    3.1550    2.1994    0.0000 C   0  0  0  0  0  0  0  0  0  0  0  0
    3.1550    3.1805    0.0000 C   0  0  0  0  0  0  0  0  0  0  0  0
    9.5324    1.3497    0.0000 C   0  0  0  0  0  0  0  0  0  0  0  0
    2.8444    9.2570    0.0000 C   0  0  0  0  0  0  0  0  0  0  0  0
    1.7663    9.2570    0.0000 C   0  0  0  0  0  0  0  0  0  0  0  0
    2.7232    6.8639    0.0000 C   0  0  0  0  0  0  0  0  0  0  0  0
    1.8875    6.8639    0.0000 C   0  0  0  0  0  0  0  0  0  0  0  0
    9.0419    2.1994    0.0000 C   0  0  0  0  0  0  0  0  0  0  0  0
    9.0419    0.5000    0.0000 C   0  0  0  0  0  0  0  0  0  0  0  0
    3.6456    1.3497    0.0000 C   0  0  0  0  0  0  0  0  0  0  0  0
    2.3054    3.6711    0.0000 C   0  0  0  0  0  0  0  0  0  0  0  0
    5.1173    0.5000    0.0000 C   0  0  0  0  0  0  0  0  0  0  0  0
    5.1173    2.1994    0.0000 C   0  0  0  0  0  0  0  0  0  0  0  0
    6.0985    0.5000    0.0000 C   0  0  0  0  0  0  0  0  0  0  0  0
    6.0985    2.1994    0.0000 C   0  0  0  0  0  0  0  0  0  0  0  0
    2.8444    8.1788    0.0000 C   0  0  0  0  0  0  0  0  0  0  0  0
    1.7663    8.1788    0.0000 C   0  0  0  0  0  0  0  0  0  0  0  0
    3.3836    7.2452    0.0000 C   0  0  0  0  0  0  0  0  0  0  0  0
    1.2271    7.2452    0.0000 C   0  0  0  0  0  0  0  0  0  0  0  0
    2.8444    6.3113    0.0000 C   0  0  0  0  0  0  0  0  0  0  0  0
    1.7663    6.3113    0.0000 C   0  0  0  0  0  0  0  0  0  0  0  0
    3.1776    5.2859    0.0000 C   0  0  0  0  0  0  0  0  0  0  0  0
    1.4331    5.2859    0.0000 C   0  0  0  0  0  0  0  0  0  0  0  0
    7.5702    1.3497    0.0000 C   0  0  0  0  0  0  0  0  0  0  0  0
    8.0607    2.1994    0.0000 N   0  0  0  0  0  0  0  0  0  0  0  0
    8.0607    0.5000    0.0000 N   0  0  0  0  0  0  0  0  0  0  0  0
    4.6268    1.3497    0.0000 N   0  0  0  0  0  0  0  0  0  0  0  0
    6.5890    1.3497    0.0000 N   0  0  0  0  0  0  0  0  0  0  0  0
    2.3054    4.6522    0.0000 N   0  0  0  0  0  0  0  0  0  0  0  0
    4.1107    4.9827    0.0000 O   0  0  0  0  0  0  0  0  0  0  0  0
    0.5000    4.9827    0.0000 O   0  0  0  0  0  0  0  0  0  0  0  0
  1  2  1  0
  1 10  1  0
  2 11  1  0
  3  8  2  0
  3  9  1  0
  4  5  2  0
  4 16  1  0
  5 17  1  0
  6  7  2  0
  6 18  1  0
  7 19  1  0
  8 25  1  0
  9 26  2  0
 10 27  1  0
 11 29  1  0
 12 14  1  0
 12 27  1  0
 13 15  1  0
 13 27  1  0
 14 28  1  0
 15 28  1  0
 16 17  1  0
 16 18  1  0
 17 19  1  0
 18 20  1  0
 19 21  1  0
 20 21  1  0
 20 22  1  0
 21 23  1  0
 22 29  1  0
 22 30  2  0
 23 29  1  0
 23 31  2  0
 24 25  2  0
 24 26  1  0
 24 28  1  0
M  END

> <chembl_id>
CHEMBL287168

> <chembl_pref_name>
None

$$$$

     RDKit          2D

 48 50  0  0  0  0  0  0  0  0999 V2000
    4.2785   -9.9746    0.0000 N   0  0  0  0  0  0  0  0  0  0  0  0
    4.2766  -10.8008    0.0000 C   0  0  0  0  0  0  0  0  0  0  0  0
    3.5608  -11.2110    0.0000 N   0  0  0  0  0  0  0  0  0  0  0  0
    4.9904  -11.2167    0.0000 N   0  0  0  0  0  0  0  0  0  0  0  0
    2.1450   -7.0816    0.0000 N   0  0  0  0  0  0  0  0  0  0  0  0
    2.8589   -7.4975    0.0000 C   0  0  0  0  0  0  0  0  0  0  0  0
    3.5765   -6.2612    0.0000 O   0  0  0  0  0  0  0  0  0  0  0  0
    3.5746   -7.0873    0.0000 C   0  0  0  0  0  0  0  0  0  0  0  0
    2.8548   -8.3201    0.0000 C   0  0  0  0  0  0  0  0  0  0  0  0
    3.5687   -8.7360    0.0000 C   0  0  0  0  0  0  0  0  0  0  0  0
    3.5668   -9.5622    0.0000 C   0  0  0  0  0  0  0  0  0  0  0  0
    4.2863   -7.4997    0.0000 N   0  0  0  0  0  0  0  0  0  0  0  0
    1.4289   -7.4912    0.0000 C   0  0  0  0  0  0  0  0  0  0  0  0
    0.7162   -7.0759    0.0000 C   0  0  0  0  0  0  0  0  0  0  0  0
    1.4256   -8.3162    0.0000 O   0  0  0  0  0  0  0  0  0  0  0  0
    0.7194   -6.2509    0.0000 C   0  0  0  0  0  0  0  0  0  0  0  0
    0.0000   -7.4854    0.0000 C   0  0  0  0  0  0  0  0  0  0  0  0
    1.4363   -5.8424    0.0000 C   0  0  0  0  0  0  0  0  0  0  0  0
    1.4399   -5.0183    0.0000 C   0  0  0  0  0  0  0  0  0  0  0  0
    0.7266   -4.6021    0.0000 C   0  0  0  0  0  0  0  0  0  0  0  0
    0.0081   -5.0161    0.0000 C   0  0  0  0  0  0  0  0  0  0  0  0
    0.0080   -5.8390    0.0000 C   0  0  0  0  0  0  0  0  0  0  0  0
   -0.7126   -7.0719    0.0000 C   0  0  0  0  0  0  0  0  0  0  0  0
   -1.4303   -7.4809    0.0000 C   0  0  0  0  0  0  0  0  0  0  0  0
   -1.4348   -8.3067    0.0000 C   0  0  0  0  0  0  0  0  0  0  0  0
   -0.7194   -8.7219    0.0000 C   0  0  0  0  0  0  0  0  0  0  0  0
   -0.0071   -8.3106    0.0000 C   0  0  0  0  0  0  0  0  0  0  0  0
    5.0014   -7.0883    0.0000 C   0  0  0  0  0  0  0  0  0  0  0  0
    5.7152   -7.5018    0.0000 C   0  0  0  0  0  0  0  0  0  0  0  0
    5.7125   -8.3259    0.0000 C   0  0  0  0  0  0  0  0  0  0  0  0
    6.4255   -8.7393    0.0000 C   0  0  0  0  0  0  0  0  0  0  0  0
    7.1415   -8.3278    0.0000 C   0  0  0  0  0  0  0  0  0  0  0  0
    7.1401   -7.4986    0.0000 C   0  0  0  0  0  0  0  0  0  0  0  0
    6.4265   -7.0888    0.0000 C   0  0  0  0  0  0  0  0  0  0  0  0
    7.8559   -8.7405    0.0000 C   0  0  0  0  0  0  0  0  0  0  0  0
    8.5705   -8.3281    0.0000 N   0  0  0  0  0  0  0  0  0  0  0  0
    9.2848   -8.7407    0.0000 C   0  0  0  0  0  0  0  0  0  0  0  0
    9.9994   -8.3283    0.0000 N   0  0  0  0  0  0  0  0  0  0  0  0
    9.2847   -9.5657    0.0000 O   0  0  0  0  0  0  0  0  0  0  0  0
   10.7137   -8.7409    0.0000 C   0  0  0  0  0  0  0  0  0  0  0  0
   11.4282   -8.3285    0.0000 C   0  0  0  0  0  0  0  0  0  0  0  0
   12.1426   -8.7411    0.0000 C   0  0  0  0  0  0  0  0  0  0  0  0
   12.8571   -8.3287    0.0000 C   0  0  0  0  0  0  0  0  0  0  0  0
   13.5716   -8.7413    0.0000 N   0  0  0  0  0  0  0  0  0  0  0  0
   14.2860   -8.3290    0.0000 C   0  0  0  0  0  0  0  0  0  0  0  0
   15.0004   -8.7416    0.0000 C   0  0  0  0  0  0  0  0  0  0  0  0
   14.2862   -7.5040    0.0000 O   0  0  0  0  0  0  0  0  0  0  0  0
   15.7149   -8.3292    0.0000 N   0  0  0  0  0  0  0  0  0  0  0  0
  8 12  1  0
  1  2  1  0
  2  3  1  0
  2  4  2  0
  5  6  1  0
  6  8  1  0
  8  7  2  0
  6  9  1  1
  9 10  1  0
 10 11  1  0
 11  1  1  0
  5 13  1  0
 13 14  1  0
 13 15  2  0
 14 16  1  0
 14 17  1  0
 16 18  2  0
 18 19  1  0
 19 20  2  0
 20 21  1  0
 21 22  2  0
 22 16  1  0
 17 23  2  0
 23 24  1  0
 24 25  2  0
 25 26  1  0
 26 27  2  0
 27 17  1  0
 12 28  1  0
 28 29  1  0
 29 30  2  0
 30 31  1  0
 31 32  2  0
 32 33  1  0
 33 34  2  0
 34 29  1  0
 32 35  1  0
 35 36  1  0
 36 37  1  0
 37 38  1  0
 37 39  2  0
 38 40  1  0
 40 41  1  0
 41 42  1  0
 42 43  1  0
 43 44  1  0
 44 45  1  0
 45 46  1  0
 45 47  2  0
 46 48  1  0
M  END

> <chembl_id>
CHEMBL3040694

> <chembl_pref_name>
None

$$$$

     RDKit          2D

 33 35  0  0  0  0  0  0  0  0999 V2000
    4.5195    3.0218    0.0000 O   0  0  0  0  0  0  0  0  0  0  0  0
    6.7491   -0.6862    0.0000 O   0  0  0  0  0  0  0  0  0  0  0  0
    6.0346    2.2013    0.0000 N   0  0  0  0  0  0  0  0  0  0  0  0
    5.3202   -0.6862    0.0000 N   0  0  0  0  0  0  0  0  0  0  0  0
    3.8912   -3.9862    0.0000 N   0  0  0  0  0  0  0  0  0  0  0  0
    6.7491    0.9638    0.0000 C   0  0  0  0  0  0  0  0  0  0  0  0
    6.0346    0.5513    0.0000 C   0  0  0  0  0  0  0  0  0  0  0  0
    6.7491    1.7888    0.0000 C   0  0  0  0  0  0  0  0  0  0  0  0
    5.3202    1.7888    0.0000 C   0  0  0  0  0  0  0  0  0  0  0  0
    5.3202    0.9638    0.0000 C   0  0  0  0  0  0  0  0  0  0  0  0
    4.6057    2.2013    0.0000 C   0  0  0  0  0  0  0  0  0  0  0  0
    6.0346   -0.2737    0.0000 C   0  0  0  0  0  0  0  0  0  0  0  0
    7.4636    0.5513    0.0000 C   0  0  0  0  0  0  0  0  0  0  0  0
    7.4636    2.2013    0.0000 C   0  0  0  0  0  0  0  0  0  0  0  0
    3.8520    1.8657    0.0000 C   0  0  0  0  0  0  0  0  0  0  0  0
    8.1781    0.9638    0.0000 C   0  0  0  0  0  0  0  0  0  0  0  0
    8.1781    1.7888    0.0000 C   0  0  0  0  0  0  0  0  0  0  0  0
    3.7125    3.1933    0.0000 C   0  0  0  0  0  0  0  0  0  0  0  0
    3.3000    2.4788    0.0000 C   0  0  0  0  0  0  0  0  0  0  0  0
    5.3202   -1.5112    0.0000 C   0  0  0  0  0  0  0  0  0  0  0  0
    4.6057   -1.9237    0.0000 C   0  0  0  0  0  0  0  0  0  0  0  0
    4.6057   -2.7487    0.0000 C   0  0  0  0  0  0  0  0  0  0  0  0
    3.8912   -3.1612    0.0000 C   0  0  0  0  0  0  0  0  0  0  0  0
    5.3202   -3.1612    0.0000 C   0  0  0  0  0  0  0  0  0  0  0  0
    5.3202   -3.9862    0.0000 C   0  0  0  0  0  0  0  0  0  0  0  0
    4.6057   -4.3987    0.0000 C   0  0  0  0  0  0  0  0  0  0  0  0
    1.1786    0.0000    0.0000 F   0  0  0  0  0  0  0  0  0  0  0  0
    0.3536    0.8250    0.0000 F   0  0  0  0  0  0  0  0  0  0  0  0
    0.3536   -0.8250    0.0000 F   0  0  0  0  0  0  0  0  0  0  0  0
   -0.8839   -0.7145    0.0000 O   0  0  0  0  0  0  0  0  0  0  0  0
   -0.8839    0.7145    0.0000 O   0  0  0  0  0  0  0  0  0  0  0  0
    0.3536    0.0000    0.0000 C   0  0  0  0  0  0  0  0  0  0  0  0
   -0.4714    0.0000    0.0000 C   0  0  0  0  0  0  0  0  0  0  0  0
  1 11  1  0
  1 18  1  0
  2 12  2  0
  3  8  2  0
  3  9  1  0
  4 12  1  0
  4 20  1  0
  5 23  2  0
  5 26  1  0
  6  7  2  0
  6  8  1  0
  6 13  1  0
  7 10  1  0
  7 12  1  0
  8 14  1  0
  9 10  2  0
  9 11  1  0
 11 15  2  0
 13 16  2  0
 14 17  2  0
 15 19  1  0
 16 17  1  0
 18 19  2  0
 20 21  1  0
 21 22  1  0
 22 23  1  0
 22 24  2  0
 24 25  1  0
 25 26  2  0
 27 32  1  0
 28 32  1  0
 29 32  1  0
 30 33  2  0
 31 33  1  0
 32 33  1  0
M  END

> <chembl_id>
CHEMBL1711885

> <chembl_pref_name>
None

$$$$

     RDKit          2D

 25 28  0  0  0  0  0  0  0  0999 V2000
    5.0626   -1.2208    0.0000 O   0  0  0  0  0  0  0  0  0  0  0  0
    4.6375    0.7097    0.0000 O   0  0  0  0  0  0  0  0  0  0  0  0
    3.2357   -2.1061    0.0000 O   0  0  0  0  0  0  0  0  0  0  0  0
    6.8933   -0.8386    0.0000 O   0  0  0  0  0  0  0  0  0  0  0  0
    2.7999    0.9521    0.0000 N   0  0  0  0  0  0  0  0  0  0  0  0
    4.2126   -0.2043    0.0000 C   0  0  0  0  0  0  0  0  0  0  0  0
    3.8796    0.3838    0.0000 C   0  0  0  0  0  0  0  0  0  0  0  0
    4.9767    0.1222    0.0000 C   0  0  0  0  0  0  0  0  0  0  0  0
    4.2305   -1.0492    0.0000 C   0  0  0  0  0  0  0  0  0  0  0  0
    3.6464    1.1463    0.0000 C   0  0  0  0  0  0  0  0  0  0  0  0
    5.5110   -0.5004    0.0000 C   0  0  0  0  0  0  0  0  0  0  0  0
    5.1354    0.9597    0.0000 C   0  0  0  0  0  0  0  0  0  0  0  0
    3.3417   -0.4154    0.0000 C   0  0  0  0  0  0  0  0  0  0  0  0
    3.0962    0.1233    0.0000 C   0  0  0  0  0  0  0  0  0  0  0  0
    3.4105   -1.2998    0.0000 C   0  0  0  0  0  0  0  0  0  0  0  0
    4.4384    1.4769    0.0000 C   0  0  0  0  0  0  0  0  0  0  0  0
    6.3042   -0.2610    0.0000 C   0  0  0  0  0  0  0  0  0  0  0  0
    2.5460    0.1371    0.0000 C   0  0  0  0  0  0  0  0  0  0  0  0
    2.7711   -0.7348    0.0000 C   0  0  0  0  0  0  0  0  0  0  0  0
    5.9445    1.1374    0.0000 C   0  0  0  0  0  0  0  0  0  0  0  0
    6.5293    0.5417    0.0000 C   0  0  0  0  0  0  0  0  0  0  0  0
    2.2393    1.5574    0.0000 C   0  0  0  0  0  0  0  0  0  0  0  0
    7.6880   -0.6172    0.0000 C   0  0  0  0  0  0  0  0  0  0  0  0
    3.3409    2.0985    0.0000 H   0  0  0  0  0  0  0  0  0  0  0  0
    0.0000    0.0000    0.0000 Cl  0  0  0  0  0  0  0  0  0  0  0  0
  1  9  1  0
  1 11  1  0
  7  2  1  6
  3 15  2  0
  4 17  1  0
  4 23  1  0
  5 10  1  0
  5 18  1  0
  5 22  1  0
  6  7  1  0
  6  8  1  0
  6  9  1  0
  6 13  1  6
  7 10  1  0
  7 14  1  0
  8 11  2  0
  8 12  1  0
  9 15  1  0
 10 16  1  0
 11 17  1  0
 12 16  1  0
 12 20  2  0
 13 18  1  0
 14 19  1  0
 15 19  1  0
 17 21  2  0
 20 21  1  0
 10 24  1  1
M  END

> <chembl_id>
CHEMBL1734772

> <chembl_pref_name>
None

$$$$

     RDKit          2D

128130  0  0  0  0  0  0  0  0999 V2000
    0.1366   -4.0648    0.0000 C   0  0  0  0  0  0  0  0  0  0  0  0
   -0.6757   -4.2092    0.0000 O   0  0  0  0  0  0  0  0  0  0  0  0
    0.3940   -5.5035    0.0000 C   0  0  0  0  0  0  0  0  0  0  0  0
   -0.4182   -5.6480    0.0000 C   0  0  0  0  0  0  0  0  0  0  0  0
   -0.6993   -6.4235    0.0000 O   0  0  0  0  0  0  0  0  0  0  0  0
    0.0657   -2.3928    0.0000 C   0  0  0  0  0  0  0  0  0  0  0  0
    0.4328   -3.2473    0.0000 C   0  0  0  0  0  0  0  0  0  0  0  0
    1.6763   -2.5438    0.0000 C   0  0  0  0  0  0  0  0  0  0  0  0
    0.7766    0.6608    0.0000 C   0  0  0  0  0  0  0  0  0  0  0  0
   -0.1123    2.3474    0.0000 C   0  0  0  0  0  0  0  0  0  0  0  0
   -0.7415    3.0179    0.0000 C   0  0  0  0  0  0  0  0  0  0  0  0
    0.4902    2.7652    0.0000 O   0  0  0  0  0  0  0  0  0  0  0  0
   -0.4038    3.6209    0.0000 C   0  0  0  0  0  0  0  0  0  0  0  0
   -1.5431    3.9996    0.0000 C   0  0  0  0  0  0  0  0  0  0  0  0
   -2.2729    4.3841    0.0000 C   0  0  0  0  0  0  0  0  0  0  0  0
   -0.8452    4.4372    0.0000 O   0  0  0  0  0  0  0  0  0  0  0  0
   -3.5366    5.0424    0.0000 C   0  0  0  0  0  0  0  0  0  0  0  0
   -4.3527    5.0093    0.0000 C   0  0  0  0  0  0  0  0  0  0  0  0
   -3.1536    5.7724    0.0000 O   0  0  0  0  0  0  0  0  0  0  0  0
   -4.7952    5.7110    0.0000 C   0  0  0  0  0  0  0  0  0  0  0  0
   -5.7783    4.9803    0.0000 C   0  0  0  0  0  0  0  0  0  0  0  0
   -6.4907    4.5561    0.0000 C   0  0  0  0  0  0  0  0  0  0  0  0
   -5.7996    5.8010    0.0000 O   0  0  0  0  0  0  0  0  0  0  0  0
   -7.1719    3.2989    0.0000 C   0  0  0  0  0  0  0  0  0  0  0  0
   -7.5215    2.5823    0.0000 C   0  0  0  0  0  0  0  0  0  0  0  0
   -7.8949    3.6977    0.0000 O   0  0  0  0  0  0  0  0  0  0  0  0
   -6.5724    0.9772    0.0000 C   0  0  0  0  0  0  0  0  0  0  0  0
   -5.6924    0.8655    0.0000 C   0  0  0  0  0  0  0  0  0  0  0  0
   -6.9033    0.4280    0.0000 O   0  0  0  0  0  0  0  0  0  0  0  0
   -4.2668    0.8966    0.0000 C   0  0  0  0  0  0  0  0  0  0  0  0
   -3.5651    1.3209    0.0000 C   0  0  0  0  0  0  0  0  0  0  0  0
   -4.2497    0.0735    0.0000 O   0  0  0  0  0  0  0  0  0  0  0  0
   -2.8413    0.9277    0.0000 C   0  0  0  0  0  0  0  0  0  0  0  0
   -2.8243    0.1047    0.0000 S   0  0  0  0  0  0  0  0  0  0  0  0
   -2.1071   -0.2918    0.0000 C   0  0  0  0  0  0  0  0  0  0  0  0
   -2.1204   -1.1130    0.0000 C   0  0  0  0  0  0  0  0  0  0  0  0
   -2.5302   -1.8184    0.0000 C   0  0  0  0  0  0  0  0  0  0  0  0
   -2.1223   -2.5361    0.0000 C   0  0  0  0  0  0  0  0  0  0  0  0
   -1.2933   -2.5364    0.0000 C   0  0  0  0  0  0  0  0  0  0  0  0
   -0.8854   -1.8155    0.0000 C   0  0  0  0  0  0  0  0  0  0  0  0
   -1.2989   -1.1063    0.0000 C   0  0  0  0  0  0  0  0  0  0  0  0
    1.3772    1.0518    0.0000 C   0  0  0  0  0  0  0  0  0  0  0  0
    1.4000    1.8721    0.0000 O   0  0  0  0  0  0  0  0  0  0  0  0
    2.7049    1.6748    0.0000 C   0  0  0  0  0  0  0  0  0  0  0  0
    2.3131    2.3925    0.0000 C   0  0  0  0  0  0  0  0  0  0  0  0
    1.4856    2.4042    0.0000 O   0  0  0  0  0  0  0  0  0  0  0  0
    3.5505    3.2112    0.0000 C   0  0  0  0  0  0  0  0  0  0  0  0
    4.3765    3.0472    0.0000 C   0  0  0  0  0  0  0  0  0  0  0  0
    4.8183    3.7497    0.0000 O   0  0  0  0  0  0  0  0  0  0  0  0
    5.5819    2.2874    0.0000 C   0  0  0  0  0  0  0  0  0  0  0  0
    5.9577    1.5565    0.0000 C   0  0  0  0  0  0  0  0  0  0  0  0
    6.0179    2.9799    0.0000 C   0  0  0  0  0  0  0  0  0  0  0  0
    6.7828    1.5275    0.0000 O   0  0  0  0  0  0  0  0  0  0  0  0
    5.9008    0.1324    0.0000 C   0  0  0  0  0  0  0  0  0  0  0  0
    5.4591   -0.5636    0.0000 C   0  0  0  0  0  0  0  0  0  0  0  0
    6.7268    0.0999    0.0000 C   0  0  0  0  0  0  0  0  0  0  0  0
    5.8448   -1.2910    0.0000 O   0  0  0  0  0  0  0  0  0  0  0  0
    4.1969   -1.2271    0.0000 C   0  0  0  0  0  0  0  0  0  0  0  0
    3.3774   -1.1882    0.0000 C   0  0  0  0  0  0  0  0  0  0  0  0
    2.9917   -0.4574    0.0000 O   0  0  0  0  0  0  0  0  0  0  0  0
   -0.0641   -1.8078    0.0000 C   0  0  0  0  0  0  0  0  0  0  0  0
   -2.9269    2.5934    0.0000 C   0  0  0  0  0  0  0  0  0  0  0  0
   -2.9439    3.4142    0.0000 C   0  0  0  0  0  0  0  0  0  0  0  0
   -2.2040    2.1946    0.0000 O   0  0  0  0  0  0  0  0  0  0  0  0
   -2.2424    3.8385    0.0000 C   0  0  0  0  0  0  0  0  0  0  0  0
    0.3438   -1.1010    0.0000 S   0  0  0  0  0  0  0  0  0  0  0  0
    0.7711   -0.2452    0.0000 C   0  0  0  0  0  0  0  0  0  0  0  0
    2.1097   -1.8524    0.0000 C   0  0  0  0  0  0  0  0  0  0  0  0
    2.0494   -3.2759    0.0000 O   0  0  0  0  0  0  0  0  0  0  0  0
   -0.3899   -3.2386    0.0000 S   0  0  0  0  0  0  0  0  0  0  0  0
   -1.6809   -3.5796    0.0000 C   0  0  0  0  0  0  0  0  0  0  0  0
   -2.2189    5.2143    0.0000 C   0  0  0  0  0  0  0  0  0  0  0  0
    3.5775    3.9215    0.0000 C   0  0  0  0  0  0  0  0  0  0  0  0
    2.8644    4.3582    0.0000 C   0  0  0  0  0  0  0  0  0  0  0  0
   -7.2150    4.9546    0.0000 C   0  0  0  0  0  0  0  0  0  0  0  0
    3.3213    1.6486    0.0000 C   0  0  0  0  0  0  0  0  0  0  0  0
    3.7337    1.0118    0.0000 C   0  0  0  0  0  0  0  0  0  0  0  0
    3.3952    0.3411    0.0000 C   0  0  0  0  0  0  0  0  0  0  0  0
    2.1852   -0.4725    0.0000 C   0  0  0  0  0  0  0  0  0  0  0  0
    4.3133    4.3158    0.0000 C   0  0  0  0  0  0  0  0  0  0  0  0
    6.8523    2.9482    0.0000 C   0  0  0  0  0  0  0  0  0  0  0  0
    7.3011    3.6540    0.0000 O   0  0  0  0  0  0  0  0  0  0  0  0
   -1.4719    5.5870    0.0000 C   0  0  0  0  0  0  0  0  0  0  0  0
   -1.4220    6.4235    0.0000 O   0  0  0  0  0  0  0  0  0  0  0  0
    0.4335    3.5665    0.0000 C   0  0  0  0  0  0  0  0  0  0  0  0
    0.8110    4.3112    0.0000 C   0  0  0  0  0  0  0  0  0  0  0  0
    2.0025    5.0816    0.0000 C   0  0  0  0  0  0  0  0  0  0  0  0
    7.1173   -0.6379    0.0000 C   0  0  0  0  0  0  0  0  0  0  0  0
    6.6698   -1.3425    0.0000 O   0  0  0  0  0  0  0  0  0  0  0  0
    4.5838   -1.9669    0.0000 C   0  0  0  0  0  0  0  0  0  0  0  0
    4.1370   -2.6693    0.0000 C   0  0  0  0  0  0  0  0  0  0  0  0
    5.4173   -1.9999    0.0000 C   0  0  0  0  0  0  0  0  0  0  0  0
    5.8042   -2.7396    0.0000 C   0  0  0  0  0  0  0  0  0  0  0  0
    3.7768   -1.9443    0.0000 H   0  0  0  0  0  0  0  0  0  0  0  0
    1.7165   -1.1120    0.0000 C   0  0  0  0  0  0  0  0  0  0  0  0
    1.4325   -0.5616    0.0000 N   0  0  0  0  0  0  0  0  0  0  0  0
    2.8425    5.1064    0.0000 N   0  0  0  0  0  0  0  0  0  0  0  0
   -7.2320    5.7793    0.0000 C   0  0  0  0  0  0  0  0  0  0  0  0
   -7.9548    6.1770    0.0000 O   0  0  0  0  0  0  0  0  0  0  0  0
    1.5118    0.4402    0.0000 H   0  0  0  0  0  0  0  0  0  0  0  0
    4.6348   -0.5279    0.0000 N   0  0  0  0  0  0  0  0  0  0  0  0
    2.9338   -1.8843    0.0000 N   0  0  0  0  0  0  0  0  0  0  0  0
   -4.1944    3.6116    0.0000 N   0  0  0  0  0  0  0  0  0  0  0  0
   -4.9887    1.2961    0.0000 N   0  0  0  0  0  0  0  0  0  0  0  0
   -3.6189    2.1442    0.0000 N   0  0  0  0  0  0  0  0  0  0  0  0
    2.2016    1.0211    0.0000 N   0  0  0  0  0  0  0  0  0  0  0  0
    0.6421   -4.7167    0.0000 N   0  0  0  0  0  0  0  0  0  0  0  0
   -5.0571    4.5798    0.0000 N   0  0  0  0  0  0  0  0  0  0  0  0
    2.7327    3.1028    0.0000 N   0  0  0  0  0  0  0  0  0  0  0  0
    4.7573    2.3154    0.0000 N   0  0  0  0  0  0  0  0  0  0  0  0
    5.5139    0.8611    0.0000 N   0  0  0  0  0  0  0  0  0  0  0  0
   -1.5515    3.1747    0.0000 N   0  0  0  0  0  0  0  0  0  0  0  0
   -6.4694    3.7314    0.0000 N   0  0  0  0  0  0  0  0  0  0  0  0
    1.2577   -3.2547    0.0000 N   0  0  0  0  0  0  0  0  0  0  0  0
   -0.0752    1.3650    0.0000 N   0  0  0  0  0  0  0  0  0  0  0  0
   -7.0362    1.6518    0.0000 N   0  0  0  0  0  0  0  0  0  0  0  0
   -0.9495   -5.0168    0.0000 N   0  0  0  0  0  0  0  0  0  0  0  0
   -3.0969    4.3444    0.0000 N   0  0  0  0  0  0  0  0  0  0  0  0
   -4.4717    6.4080    0.0000 O   0  0  0  0  0  0  0  0  0  0  0  0
    2.5748    0.2546    0.0000 N   0  0  0  0  0  0  0  0  0  0  0  0
    2.5975   -1.1513    0.0000 N   0  0  0  0  0  0  0  0  0  0  0  0
    7.2424    2.1559    0.0000 N   0  0  0  0  0  0  0  0  0  0  0  0
   -0.7887    5.1153    0.0000 O   0  0  0  0  0  0  0  0  0  0  0  0
    1.6354    4.3427    0.0000 N   0  0  0  0  0  0  0  0  0  0  0  0
    1.5564    5.7682    0.0000 N   0  0  0  0  0  0  0  0  0  0  0  0
    7.9548   -0.6786    0.0000 N   0  0  0  0  0  0  0  0  0  0  0  0
    0.8825   -1.0820    0.0000 O   0  0  0  0  0  0  0  0  0  0  0  0
   -6.5262    6.2065    0.0000 N   0  0  0  0  0  0  0  0  0  0  0  0
 24 25  1  0
 24 26  2  0
 27 28  1  0
 27 29  2  0
 30 31  1  0
 30 32  2  0
 31 33  1  0
 33 34  1  0
 34 35  1  0
 35 36  1  0
 36 37  2  0
 37 38  1  0
 38 39  2  0
 39 40  1  0
 40 41  2  0
 41 36  1  0
  9 42  1  0
 42 43  2  0
 44 45  1  0
 45 46  2  0
 47 48  1  0
 48 49  2  0
 50 51  1  0
 50 52  1  1
 51 53  2  0
 54 55  1  0
 54 56  1  1
 55 57  2  0
 58 59  1  0
 59 60  2  0
 40 61  1  0
 62 63  1  0
 62 64  2  0
 63 65  1  1
 61 66  1  0
 66 67  1  0
  9 67  1  0
 68  8  1  0
  8 69  2  0
  7  1  1  6
  6 70  1  0
 70 71  1  0
 71 38  1  0
 15 72  1  1
 47 73  1  1
 73 74  1  0
 22 75  1  1
 44 76  1  6
 76 77  1  0
 77 78  1  0
 73 80  1  0
 52 81  1  0
 81 82  2  0
 72 83  1  0
 83 84  2  0
 13 85  1  0
 85 86  1  0
 56 88  1  0
 88 89  2  0
 58 90  1  0
 90 91  1  6
 90 92  1  0
 92 93  1  0
 58 94  1  6
 68 95  1  6
  1  2  2  0
  3  4  1  0
  4  5  2  0
  7  6  1  0
 10 11  1  0
 10 12  2  0
 11 13  1  1
 14 15  1  0
 14 16  2  0
 17 18  1  0
 17 19  2  0
 18 20  1  1
 21 22  1  0
 21 23  2  0
 79 96  2  0
 87 97  2  0
 75 98  1  0
 98 99  2  0
  9100  1  1
 55101  1  0
 58101  1  0
 59102  1  0
 68102  1  0
 63103  1  0
 28104  1  0
 30104  1  0
 31105  1  1
 62105  1  0
 42106  1  0
 44106  1  0
  1107  1  0
  3107  1  0
 18108  1  0
 21108  1  0
 45109  1  0
 47109  1  0
 48110  1  0
 50110  1  0
 51111  1  0
 54111  1  0
 11112  1  0
 14112  1  0
 22113  1  0
 24113  1  0
  7114  1  0
  8114  1  0
  9115  1  0
 10115  1  0
 25116  1  0
 27116  1  0
  4117  1  0
 15118  1  0
 17118  1  0
 20119  1  0
 78120  1  0
 79120  1  0
 79121  1  0
 81122  1  0
 83123  1  0
 86124  1  0
 87124  1  0
 87125  1  0
 88126  1  0
 95127  1  0
 98128  1  0
M  END

> <chembl_id>
CHEMBL1240604

> <chembl_pref_name>
None

$$$$

     RDKit          2D

 25 26  0  0  0  0  0  0  0  0999 V2000
    0.2030   -1.5283    0.0000 S   0  0  0  0  0  0  0  0  0  0  0  0
   -4.0838   -4.0033    0.0000 O   0  0  0  0  0  0  0  0  0  0  0  0
   -1.9404   -1.9408    0.0000 O   0  0  0  0  0  0  0  0  0  0  0  0
    0.9175   -2.7658    0.0000 N   0  0  0  0  0  0  0  0  0  0  0  0
    1.6320   -1.5283    0.0000 N   0  0  0  0  0  0  0  0  0  0  0  0
   -2.6548   -3.1783    0.0000 N   0  0  0  0  0  0  0  0  0  0  0  0
    2.3465   -1.9408    0.0000 C   0  0  0  0  0  0  0  0  0  0  0  0
    0.9175   -1.9408    0.0000 C   0  0  0  0  0  0  0  0  0  0  0  0
    1.6320   -3.1783    0.0000 C   0  0  0  0  0  0  0  0  0  0  0  0
    2.3465   -2.7658    0.0000 C   0  0  0  0  0  0  0  0  0  0  0  0
    0.2030   -3.1783    0.0000 C   0  0  0  0  0  0  0  0  0  0  0  0
   -3.3693   -2.7658    0.0000 C   0  0  0  0  0  0  0  0  0  0  0  0
   -4.0838   -3.1783    0.0000 C   0  0  0  0  0  0  0  0  0  0  0  0
    2.7836   -1.2411    0.0000 C   0  0  0  0  0  0  0  0  0  0  0  0
    3.1710   -1.9120    0.0000 C   0  0  0  0  0  0  0  0  0  0  0  0
    1.6320   -4.0033    0.0000 C   0  0  0  0  0  0  0  0  0  0  0  0
   -0.5114   -2.7658    0.0000 C   0  0  0  0  0  0  0  0  0  0  0  0
   -1.9404   -2.7658    0.0000 C   0  0  0  0  0  0  0  0  0  0  0  0
   -3.3693   -1.9408    0.0000 C   0  0  0  0  0  0  0  0  0  0  0  0
   -1.2259   -3.1783    0.0000 C   0  0  0  0  0  0  0  0  0  0  0  0
   -4.7983   -2.7658    0.0000 C   0  0  0  0  0  0  0  0  0  0  0  0
   -4.0838   -1.5283    0.0000 C   0  0  0  0  0  0  0  0  0  0  0  0
   -4.7983   -1.9408    0.0000 C   0  0  0  0  0  0  0  0  0  0  0  0
   -4.7983   -4.4158    0.0000 C   0  0  0  0  0  0  0  0  0  0  0  0
   -4.7983   -5.2408    0.0000 C   0  0  0  0  0  0  0  0  0  0  0  0
  1  8  1  0
  2 13  1  0
  2 24  1  0
  3 18  2  0
  4  8  1  0
  4  9  1  0
  4 11  1  0
  5  7  1  0
  5  8  2  0
  6 12  1  0
  6 18  1  0
  7 10  1  0
  7 14  1  0
  7 15  1  0
  9 10  1  0
  9 16  1  0
 11 17  1  0
 12 13  1  0
 12 19  2  0
 13 21  2  0
 17 20  1  0
 18 20  1  0
 19 22  1  0
 21 23  1  0
 22 23  2  0
 24 25  1  0
M  END

> <chembl_id>
CHEMBL1400691

> <chembl_pref_name>
None

$$$$

     RDKit          2D

 33 35  0  0  0  0  0  0  0  0999 V2000
    0.0000    0.0000    0.0000 Cl  0  0  0  0  0  0  0  0  0  0  0  0
    0.5000    7.0000    0.0000 C   0  0  0  0  0  0  0  0  0  0  0  0
    2.2321    7.0000    0.0000 C   0  0  0  0  0  0  0  0  0  0  0  0
    6.5622    0.5000    0.0000 C   0  0  0  0  0  0  0  0  0  0  0  0
    6.4282    5.0000    0.0000 C   0  0  0  0  0  0  0  0  0  0  0  0
    1.3660    0.5000    0.0000 C   0  0  0  0  0  0  0  0  0  0  0  0
    0.5000    1.0000    0.0000 C   0  0  0  0  0  0  0  0  0  0  0  0
    3.9641    5.0000    0.0000 C   0  0  0  0  0  0  0  0  0  0  0  0
    3.0981    5.5000    0.0000 C   0  0  0  0  0  0  0  0  0  0  0  0
    2.2321    1.0000    0.0000 C   0  0  0  0  0  0  0  0  0  0  0  0
    3.9641    4.0000    0.0000 C   0  0  0  0  0  0  0  0  0  0  0  0
    0.5000    2.0000    0.0000 C   0  0  0  0  0  0  0  0  0  0  0  0
    5.6962    4.0000    0.0000 C   0  0  0  0  0  0  0  0  0  0  0  0
    4.8301    3.5000    0.0000 C   0  0  0  0  0  0  0  0  0  0  0  0
    6.5622    2.5000    0.0000 C   0  0  0  0  0  0  0  0  0  0  0  0
    1.3660    5.5000    0.0000 C   0  0  0  0  0  0  0  0  0  0  0  0
    2.2321    5.0000    0.0000 C   0  0  0  0  0  0  0  0  0  0  0  0
    6.5622    3.5000    0.0000 C   0  0  0  0  0  0  0  0  0  0  0  0
    2.2321    2.0000    0.0000 C   0  0  0  0  0  0  0  0  0  0  0  0
    3.0981    3.5000    0.0000 C   0  0  0  0  0  0  0  0  0  0  0  0
    1.3660    2.5000    0.0000 C   0  0  0  0  0  0  0  0  0  0  0  0
    4.8301    2.5000    0.0000 C   0  0  0  0  0  0  0  0  0  0  0  0
    5.6962    2.0000    0.0000 C   0  0  0  0  0  0  0  0  0  0  0  0
    2.2321    4.0000    0.0000 C   0  0  0  0  0  0  0  0  0  0  0  0
    3.0981    2.5000    0.0000 C   0  0  0  0  0  0  0  0  0  0  0  0
    1.3660    3.5000    0.0000 N   0  0  0  0  0  0  0  0  0  0  0  0
    3.9641    2.0000    0.0000 N   0  0  0  0  0  0  0  0  0  0  0  0
    7.4282    4.0000    0.0000 N   0  0  0  0  0  0  0  0  0  0  0  0
    1.3660    6.5000    0.0000 N   0  0  0  0  0  0  0  0  0  0  0  0
    7.4282    6.0000    0.0000 O   0  0  0  0  0  0  0  0  0  0  0  0
    8.4282    5.0000    0.0000 O   0  0  0  0  0  0  0  0  0  0  0  0
    5.6962    1.0000    0.0000 O   0  0  0  0  0  0  0  0  0  0  0  0
    7.4282    5.0000    0.0000 S   0  0  0  0  0  0  0  0  0  0  0  0
  2 29  1  0
  3 29  1  0
  4 32  1  0
  5 33  1  0
  6  7  2  0
  6 10  1  0
  7 12  1  0
  8  9  2  0
  8 11  1  0
  9 17  1  0
 10 19  2  0
 11 20  2  0
 12 21  2  0
 13 14  2  0
 13 18  1  0
 14 22  1  0
 15 18  2  0
 15 23  1  0
 16 17  1  0
 16 29  1  0
 17 24  2  0
 18 28  1  0
 19 21  1  0
 19 25  1  0
 20 24  1  0
 20 25  1  0
 21 26  1  0
 22 23  2  0
 22 27  1  0
 23 32  1  0
 24 26  1  0
 25 27  2  3
 28 33  1  0
 30 33  2  0
 31 33  2  0
M  END

> <chembl_id>
CHEMBL1204317

> <chembl_pref_name>
None

$$$$

     RDKit          2D

 32 36  0  0  0  0  0  0  0  0999 V2000
    0.0000    0.0000    0.0000 Cl  0  0  0  0  0  0  0  0  0  0  0  0
    3.1550    2.1994    0.0000 C   0  0  0  0  0  0  0  0  0  0  0  0
    3.1550    3.1805    0.0000 C   0  0  0  0  0  0  0  0  0  0  0  0
    9.5324    1.3497    0.0000 C   0  0  0  0  0  0  0  0  0  0  0  0
    2.8444    9.2570    0.0000 C   0  0  0  0  0  0  0  0  0  0  0  0
    1.7663    9.2570    0.0000 C   0  0  0  0  0  0  0  0  0  0  0  0
    2.7232    6.8639    0.0000 C   0  0  0  0  0  0  0  0  0  0  0  0
    1.8875    6.8639    0.0000 C   0  0  0  0  0  0  0  0  0  0  0  0
    9.0419    2.1994    0.0000 C   0  0  0  0  0  0  0  0  0  0  0  0
    9.0419    0.5000    0.0000 C   0  0  0  0  0  0  0  0  0  0  0  0
    3.6456    1.3497    0.0000 C   0  0  0  0  0  0  0  0  0  0  0  0
    2.3054    3.6711    0.0000 C   0  0  0  0  0  0  0  0  0  0  0  0
    5.1173    0.5000    0.0000 C   0  0  0  0  0  0  0  0  0  0  0  0
    5.1173    2.1994    0.0000 C   0  0  0  0  0  0  0  0  0  0  0  0
    6.0985    0.5000    0.0000 C   0  0  0  0  0  0  0  0  0  0  0  0
    6.0985    2.1994    0.0000 C   0  0  0  0  0  0  0  0  0  0  0  0
    2.8444    8.1788    0.0000 C   0  0  0  0  0  0  0  0  0  0  0  0
    1.7663    8.1788    0.0000 C   0  0  0  0  0  0  0  0  0  0  0  0
    3.3836    7.2452    0.0000 C   0  0  0  0  0  0  0  0  0  0  0  0
    1.2271    7.2452    0.0000 C   0  0  0  0  0  0  0  0  0  0  0  0
    2.8444    6.3113    0.0000 C   0  0  0  0  0  0  0  0  0  0  0  0
    1.7663    6.3113    0.0000 C   0  0  0  0  0  0  0  0  0  0  0  0
    3.1776    5.2859    0.0000 C   0  0  0  0  0  0  0  0  0  0  0  0
    1.4331    5.2859    0.0000 C   0  0  0  0  0  0  0  0  0  0  0  0
    7.5702    1.3497    0.0000 C   0  0  0  0  0  0  0  0  0  0  0  0
    8.0607    2.1994    0.0000 N   0  0  0  0  0  0  0  0  0  0  0  0
    8.0607    0.5000    0.0000 N   0  0  0  0  0  0  0  0  0  0  0  0
    4.6268    1.3497    0.0000 N   0  0  0  0  0  0  0  0  0  0  0  0
    6.5890    1.3497    0.0000 N   0  0  0  0  0  0  0  0  0  0  0  0
    2.3054    4.6522    0.0000 N   0  0  0  0  0  0  0  0  0  0  0  0
    4.1107    4.9827    0.0000 O   0  0  0  0  0  0  0  0  0  0  0  0
    0.5000    4.9827    0.0000 O   0  0  0  0  0  0  0  0  0  0  0  0
  2  3  1  0
  2 11  1  0
  3 12  1  0
  4  9  2  0
  4 10  1  0
  5  6  2  0
  5 17  1  0
  6 18  1  0
  7  8  2  0
  7 19  1  0
  8 20  1  0
  9 26  1  0
 10 27  2  0
 11 28  1  0
 12 30  1  0
 13 15  1  0
 13 28  1  0
 14 16  1  0
 14 28  1  0
 15 29  1  0
 16 29  1  0
 17 18  1  0
 17 19  1  0
 18 20  1  0
 19 21  1  0
 20 22  1  0
 21 22  1  0
 21 23  1  0
 22 24  1  0
 23 30  1  0
 23 31  2  0
 24 30  1  0
 24 32  2  0
 25 26  2  0
 25 27  1  0
 25 29  1  0
M  END

> <chembl_id>
CHEMBL1204094

> <chembl_pref_name>
None

$$$$

     RDKit          2D

 19 20  0  0  0  0  0  0  0  0999 V2000
   -0.6698    1.1913    0.0000 S   0  0  0  0  0  0  0  0  0  0  0  0
    1.8694    4.0645    0.0000 O   0  0  0  0  0  0  0  0  0  0  0  0
   -0.5159    2.6987    0.0000 O   0  0  0  0  0  0  0  0  0  0  0  0
    0.6401    1.8588    0.0000 N   0  0  0  0  0  0  0  0  0  0  0  0
    1.9794   -0.1032    0.0000 N   0  0  0  0  0  0  0  0  0  0  0  0
    0.1552    1.1913    0.0000 C   0  0  0  0  0  0  0  0  0  0  0  0
    0.4101    0.4067    0.0000 C   0  0  0  0  0  0  0  0  0  0  0  0
   -0.2573   -0.0782    0.0000 C   0  0  0  0  0  0  0  0  0  0  0  0
    0.7895    3.2799    0.0000 C   0  0  0  0  0  0  0  0  0  0  0  0
   -0.9248    0.4067    0.0000 C   0  0  0  0  0  0  0  0  0  0  0  0
    0.3045    2.6124    0.0000 C   0  0  0  0  0  0  0  0  0  0  0  0
    1.6145    3.2799    0.0000 C   0  0  0  0  0  0  0  0  0  0  0  0
    0.5345    4.0645    0.0000 C   0  0  0  0  0  0  0  0  0  0  0  0
    1.2020    4.5494    0.0000 C   0  0  0  0  0  0  0  0  0  0  0  0
    1.1947    0.1518    0.0000 C   0  0  0  0  0  0  0  0  0  0  0  0
   -0.2573   -0.9032    0.0000 C   0  0  0  0  0  0  0  0  0  0  0  0
   -1.7094    0.1518    0.0000 C   0  0  0  0  0  0  0  0  0  0  0  0
    2.0994    2.6124    0.0000 C   0  0  0  0  0  0  0  0  0  0  0  0
    1.2020    5.3744    0.0000 C   0  0  0  0  0  0  0  0  0  0  0  0
  1  6  1  0
  1 10  1  0
  2 12  1  0
  2 14  1  0
  3 11  2  0
  4  6  1  0
  4 11  1  0
  5 15  3  0
  6  7  2  0
  7  8  1  0
  7 15  1  0
  8 10  2  0
  8 16  1  0
  9 11  1  0
  9 12  2  0
  9 13  1  0
 10 17  1  0
 12 18  1  0
 13 14  2  0
 14 19  1  0
M  END

> <chembl_id>
CHEMBL1406941

> <chembl_pref_name>
None

$$$$

     RDKit          2D

 38 43  0  0  0  0  0  0  0  0999 V2000
   -3.1005  -19.0060    0.0000 C   0  0  0  0  0  0  0  0  0  0  0  0
   -3.8574  -18.6718    0.0000 N   0  0  0  0  0  0  0  0  0  0  0  0
   -3.1916  -19.8301    0.0000 N   0  0  0  0  0  0  0  0  0  0  0  0
   -3.9996  -20.0004    0.0000 C   0  0  0  0  0  0  0  0  0  0  0  0
   -4.4078  -19.2871    0.0000 C   0  0  0  0  0  0  0  0  0  0  0  0
   -5.2277  -19.2850    0.0000 C   0  0  0  0  0  0  0  0  0  0  0  0
   -5.6353  -19.9954    0.0000 C   0  0  0  0  0  0  0  0  0  0  0  0
   -5.2272  -20.7094    0.0000 C   0  0  0  0  0  0  0  0  0  0  0  0
   -4.4086  -20.7080    0.0000 C   0  0  0  0  0  0  0  0  0  0  0  0
   -1.7282  -17.3062    0.0000 N   0  0  0  0  0  0  0  0  0  0  0  0
   -2.4286  -17.7434    0.0000 C   0  0  0  0  0  0  0  0  0  0  0  0
   -3.8687  -15.2483    0.0000 C   0  0  0  0  0  0  0  0  0  0  0  0
   -3.8700  -16.0765    0.0000 C   0  0  0  0  0  0  0  0  0  0  0  0
   -3.1563  -16.4898    0.0000 N   0  0  0  0  0  0  0  0  0  0  0  0
   -3.1583  -14.8351    0.0000 C   0  0  0  0  0  0  0  0  0  0  0  0
   -2.4405  -15.2483    0.0000 C   0  0  0  0  0  0  0  0  0  0  0  0
   -2.4391  -16.0719    0.0000 C   0  0  0  0  0  0  0  0  0  0  0  0
   -1.7289  -16.4803    0.0000 C   0  0  0  0  0  0  0  0  0  0  0  0
   -1.0156  -16.0695    0.0000 C   0  0  0  0  0  0  0  0  0  0  0  0
   -1.0171  -15.2458    0.0000 C   0  0  0  0  0  0  0  0  0  0  0  0
   -1.7318  -14.8329    0.0000 C   0  0  0  0  0  0  0  0  0  0  0  0
   -1.0059  -17.7063    0.0000 C   0  0  0  0  0  0  0  0  0  0  0  0
   -0.2983  -17.2809    0.0000 C   0  0  0  0  0  0  0  0  0  0  0  0
    0.4233  -17.6837    0.0000 C   0  0  0  0  0  0  0  0  0  0  0  0
    1.1306  -17.2590    0.0000 C   0  0  0  0  0  0  0  0  0  0  0  0
    1.1164  -16.4325    0.0000 C   0  0  0  0  0  0  0  0  0  0  0  0
    0.3891  -16.0326    0.0000 C   0  0  0  0  0  0  0  0  0  0  0  0
   -0.3151  -16.4597    0.0000 C   0  0  0  0  0  0  0  0  0  0  0  0
    1.8235  -16.0062    0.0000 C   0  0  0  0  0  0  0  0  0  0  0  0
    2.5463  -16.4053    0.0000 N   0  0  0  0  0  0  0  0  0  0  0  0
    3.2534  -15.9790    0.0000 C   0  0  0  0  0  0  0  0  0  0  0  0
    3.9762  -16.3781    0.0000 C   0  0  0  0  0  0  0  0  0  0  0  0
    3.9901  -17.2036    0.0000 C   0  0  0  0  0  0  0  0  0  0  0  0
    4.7120  -17.6027    0.0000 C   0  0  0  0  0  0  0  0  0  0  0  0
    5.4201  -17.1763    0.0000 C   0  0  0  0  0  0  0  0  0  0  0  0
    5.4016  -16.3465    0.0000 C   0  0  0  0  0  0  0  0  0  0  0  0
    4.6792  -15.9510    0.0000 N   0  0  0  0  0  0  0  0  0  0  0  0
   -2.4001  -18.5687    0.0000 C   0  0  0  0  0  0  0  0  0  0  0  0
  1  2  2  0
 16 21  1  0
 17 18  1  0
 18 19  1  0
 19 20  1  0
 20 21  1  0
 18 10  1  0
  4  5  2  0
 10 22  1  0
 10 11  1  0
 22 23  1  0
  2  5  1  0
 23 24  2  0
  5  6  1  0
 24 25  1  0
 12 13  2  0
 25 26  2  0
  4  3  1  0
 26 27  1  0
 13 14  1  0
 27 28  2  0
 28 23  1  0
 14 17  2  0
 26 29  1  0
  6  7  2  0
 29 30  1  0
 16 15  2  0
 30 31  1  0
 15 12  1  0
 31 32  1  0
 16 17  1  0
 32 33  2  0
  3  1  1  0
 33 34  1  0
  7  8  1  0
 34 35  2  0
 35 36  1  0
  8  9  2  0
 36 37  2  0
 37 32  1  0
  9  4  1  0
 11 38  1  0
 38  1  1  0
M  END

> <chembl_id>
CHEMBL1090194

> <chembl_pref_name>
None

$$$$

     RDKit          2D

 34 37  0  0  0  0  0  0  0  0999 V2000
    6.3208  -16.8042    0.0000 C   0  0  0  0  0  0  0  0  0  0  0  0
    6.3208  -17.6292    0.0000 C   0  0  0  0  0  0  0  0  0  0  0  0
    7.0329  -18.0375    0.0000 N   0  0  0  0  0  0  0  0  0  0  0  0
    7.7448  -17.6284    0.0000 C   0  0  0  0  0  0  0  0  0  0  0  0
    7.7449  -16.8042    0.0000 C   0  0  0  0  0  0  0  0  0  0  0  0
    7.0329  -16.3875    0.0000 C   0  0  0  0  0  0  0  0  0  0  0  0
    7.0329  -15.5625    0.0000 O   0  0  0  0  0  0  0  0  0  0  0  0
    8.4479  -16.3723    0.0000 C   0  0  0  0  0  0  0  0  0  0  0  0
    9.1749  -16.7641    0.0000 O   0  0  0  0  0  0  0  0  0  0  0  0
    8.4270  -15.5465    0.0000 O   0  0  0  0  0  0  0  0  0  0  0  0
    9.8770  -16.3309    0.0000 C   0  0  0  0  0  0  0  0  0  0  0  0
   10.6032  -16.7223    0.0000 C   0  0  0  0  0  0  0  0  0  0  0  0
    7.0329  -18.8625    0.0000 C   0  0  0  0  0  0  0  0  0  0  0  0
    6.3184  -19.2750    0.0000 C   0  0  0  0  0  0  0  0  0  0  0  0
    7.7473  -19.2750    0.0000 O   0  0  0  0  0  0  0  0  0  0  0  0
    6.3184  -20.1000    0.0000 N   0  0  0  0  0  0  0  0  0  0  0  0
    5.6034  -20.5136    0.0000 C   0  0  0  0  0  0  0  0  0  0  0  0
    5.6015  -21.3350    0.0000 C   0  0  0  0  0  0  0  0  0  0  0  0
    6.3141  -21.7514    0.0000 C   0  0  0  0  0  0  0  0  0  0  0  0
    7.0304  -21.3401    0.0000 C   0  0  0  0  0  0  0  0  0  0  0  0
    7.0340  -20.5125    0.0000 C   0  0  0  0  0  0  0  0  0  0  0  0
    6.3110  -22.5763    0.0000 O   0  0  0  0  0  0  0  0  0  0  0  0
    8.4569  -18.0375    0.0000 C   0  0  0  0  0  0  0  0  0  0  0  0
    8.4547  -18.8636    0.0000 C   0  0  0  0  0  0  0  0  0  0  0  0
    9.1679  -19.2768    0.0000 C   0  0  0  0  0  0  0  0  0  0  0  0
    9.8838  -18.8650    0.0000 C   0  0  0  0  0  0  0  0  0  0  0  0
    9.8820  -18.0357    0.0000 C   0  0  0  0  0  0  0  0  0  0  0  0
    9.1682  -17.6262    0.0000 C   0  0  0  0  0  0  0  0  0  0  0  0
    5.6079  -18.0432    0.0000 C   0  0  0  0  0  0  0  0  0  0  0  0
    4.8926  -17.6300    0.0000 C   0  0  0  0  0  0  0  0  0  0  0  0
    4.1792  -18.0428    0.0000 C   0  0  0  0  0  0  0  0  0  0  0  0
    4.1799  -18.8687    0.0000 C   0  0  0  0  0  0  0  0  0  0  0  0
    4.9000  -19.2800    0.0000 C   0  0  0  0  0  0  0  0  0  0  0  0
    5.6105  -18.8648    0.0000 C   0  0  0  0  0  0  0  0  0  0  0  0
  5  8  1  0
  1  6  1  0
  2  3  1  0
  8  9  1  0
  8 10  2  0
 16 21  1  0
 17 18  1  0
 18 19  1  0
 19 20  1  0
 20 21  1  0
  3  4  1  0
 19 22  2  0
  9 11  1  0
  4  5  1  0
 23 24  2  0
 11 12  1  0
 24 25  1  0
  5  6  2  0
 25 26  2  0
  3 13  1  0
 26 27  1  0
 27 28  2  0
 28 23  1  0
  4 23  1  0
 13 14  1  0
  6  7  1  0
 29 30  2  0
 13 15  1  0
 30 31  1  0
  1  2  1  0
 31 32  2  0
 14 16  1  0
 32 33  1  0
 16 17  1  0
 33 34  2  0
 34 29  1  0
  2 29  1  0
M  END

> <chembl_id>
CHEMBL1090697

> <chembl_pref_name>
None

$$$$

     RDKit          2D

 31 35  0  0  0  0  0  0  0  0999 V2000
   -5.4944  -19.1179    0.0000 C   0  0  0  0  0  0  0  0  0  0  0  0
   -5.4955  -19.9524    0.0000 C   0  0  0  0  0  0  0  0  0  0  0  0
   -4.7745  -20.3689    0.0000 C   0  0  0  0  0  0  0  0  0  0  0  0
   -4.7763  -18.7016    0.0000 C   0  0  0  0  0  0  0  0  0  0  0  0
   -3.2612  -18.8581    0.0000 C   0  0  0  0  0  0  0  0  0  0  0  0
   -4.0547  -19.1143    0.0000 C   0  0  0  0  0  0  0  0  0  0  0  0
   -4.0551  -19.9488    0.0000 C   0  0  0  0  0  0  0  0  0  0  0  0
   -3.2609  -20.2057    0.0000 S   0  0  0  0  0  0  0  0  0  0  0  0
   -2.7724  -19.5290    0.0000 C   0  0  0  0  0  0  0  0  0  0  0  0
   -3.2645  -18.0291    0.0000 C   0  0  0  0  0  0  0  0  0  0  0  0
   -2.3678  -14.3379    0.0000 C   0  0  0  0  0  0  0  0  0  0  0  0
   -1.6252  -13.9928    0.0000 C   0  0  0  0  0  0  0  0  0  0  0  0
   -0.8858  -14.3579    0.0000 C   0  0  0  0  0  0  0  0  0  0  0  0
   -2.5623  -15.1448    0.0000 N   0  0  0  0  0  0  0  0  0  0  0  0
   -0.7059  -15.1606    0.0000 C   0  0  0  0  0  0  0  0  0  0  0  0
   -2.0532  -15.7932    0.0000 C   0  0  0  0  0  0  0  0  0  0  0  0
   -1.2284  -15.7991    0.0000 C   0  0  0  0  0  0  0  0  0  0  0  0
   -2.5519  -17.6186    0.0000 C   0  0  0  0  0  0  0  0  0  0  0  0
   -2.5540  -16.7957    0.0000 C   0  0  0  0  0  0  0  0  0  0  0  0
   -3.2680  -16.3852    0.0000 C   0  0  0  0  0  0  0  0  0  0  0  0
   -3.9814  -16.8037    0.0000 C   0  0  0  0  0  0  0  0  0  0  0  0
   -3.9758  -17.6252    0.0000 C   0  0  0  0  0  0  0  0  0  0  0  0
   -3.2716  -15.5614    0.0000 C   0  0  0  0  0  0  0  0  0  0  0  0
   -3.9856  -15.1527    0.0000 O   0  0  0  0  0  0  0  0  0  0  0  0
   -0.6725  -13.5579    0.0000 C   0  0  0  0  0  0  0  0  0  0  0  0
   -0.0925  -14.1420    0.0000 C   0  0  0  0  0  0  0  0  0  0  0  0
   -1.6600  -14.7471    0.0000 C   0  0  0  0  0  0  0  0  0  0  0  0
   -0.9012  -16.5539    0.0000 C   0  0  0  0  0  0  0  0  0  0  0  0
   -3.0451  -13.8750    0.0000 H   0  0  0  0  0  0  0  0  0  0  0  0
   -4.7049  -16.3925    0.0000 Cl  0  0  0  0  0  0  0  0  0  0  0  0
   -1.8309  -18.0342    0.0000 Cl  0  0  0  0  0  0  0  0  0  0  0  0
 14 16  1  0
  5  6  1  0
 15 17  1  0
 16 17  1  0
  7  8  1  0
 10 18  2  0
  8  9  1  0
 18 19  1  0
  9  5  2  0
 19 20  2  0
  4  1  1  0
 20 21  1  0
  6  7  1  0
 21 22  2  0
 22 10  1  0
 20 23  1  0
 11 12  1  0
 23 24  2  0
 23 14  1  0
  2  3  1  0
 13 25  1  0
 12 13  1  0
 13 26  1  0
  3  7  2  0
 11 27  1  0
 27 17  1  0
 11 14  1  0
 17 28  1  1
  1  2  2  0
 11 29  1  1
 10  5  1  0
 13 15  1  0
 21 30  1  0
  6  4  2  0
 18 31  1  0
M  END

> <chembl_id>
CHEMBL1084069

> <chembl_pref_name>
None

$$$$

     RDKit          2D

 26 28  0  0  0  0  0  0  0  0999 V2000
    0.3710   -4.7714    0.0000 S   0  0  0  0  0  0  0  0  0  0  0  0
    2.6831   -3.0915    0.0000 O   0  0  0  0  0  0  0  0  0  0  0  0
    0.0723   -1.9291    0.0000 O   0  0  0  0  0  0  0  0  0  0  0  0
    0.8158    0.1803    0.0000 N   0  0  0  0  0  0  0  0  0  0  0  0
    1.5270   -3.9315    0.0000 N   0  0  0  0  0  0  0  0  0  0  0  0
    0.2216   -3.3503    0.0000 N   0  0  0  0  0  0  0  0  0  0  0  0
    1.5303    1.4178    0.0000 N   0  0  0  0  0  0  0  0  0  0  0  0
    1.2283   -1.0892    0.0000 C   0  0  0  0  0  0  0  0  0  0  0  0
    1.3777   -2.5103    0.0000 C   0  0  0  0  0  0  0  0  0  0  0  0
    1.4832   -0.3046    0.0000 C   0  0  0  0  0  0  0  0  0  0  0  0
    1.8626   -3.1778    0.0000 C   0  0  0  0  0  0  0  0  0  0  0  0
    0.1484   -0.3046    0.0000 C   0  0  0  0  0  0  0  0  0  0  0  0
    1.7132   -1.7567    0.0000 C   0  0  0  0  0  0  0  0  0  0  0  0
    0.5572   -2.5966    0.0000 C   0  0  0  0  0  0  0  0  0  0  0  0
    0.4033   -1.0892    0.0000 C   0  0  0  0  0  0  0  0  0  0  0  0
    0.8158    1.0053    0.0000 C   0  0  0  0  0  0  0  0  0  0  0  0
    0.7066   -4.0177    0.0000 C   0  0  0  0  0  0  0  0  0  0  0  0
    2.0120   -4.5989    0.0000 C   0  0  0  0  0  0  0  0  0  0  0  0
    2.2679   -0.0497    0.0000 C   0  0  0  0  0  0  0  0  0  0  0  0
    0.1013    1.4178    0.0000 C   0  0  0  0  0  0  0  0  0  0  0  0
   -0.6363   -0.0497    0.0000 C   0  0  0  0  0  0  0  0  0  0  0  0
    1.5303    2.2428    0.0000 C   0  0  0  0  0  0  0  0  0  0  0  0
    0.1013    2.2428    0.0000 C   0  0  0  0  0  0  0  0  0  0  0  0
    2.8324   -4.5127    0.0000 C   0  0  0  0  0  0  0  0  0  0  0  0
    0.8158    2.6553    0.0000 C   0  0  0  0  0  0  0  0  0  0  0  0
    3.3174   -5.1801    0.0000 C   0  0  0  0  0  0  0  0  0  0  0  0
  1 17  2  0
  2 11  2  0
  3 14  2  0
  4 10  1  0
  4 12  1  0
  4 16  1  0
  5 11  1  0
  5 17  1  0
  5 18  1  0
  6 14  1  0
  6 17  1  0
  7 16  1  0
  7 22  2  0
  8 10  2  0
  8 13  1  0
  8 15  1  0
  9 11  1  0
  9 13  2  0
  9 14  1  0
 10 19  1  0
 12 15  2  0
 12 21  1  0
 16 20  2  0
 18 24  1  0
 20 23  1  0
 22 25  1  0
 23 25  2  0
 24 26  2  0
M  END

> <chembl_id>
CHEMBL1340604

> <chembl_pref_name>
None

$$$$

     RDKit          2D

 28 29  0  0  0  0  0  0  0  0999 V2000
   16.3402  -19.3166    0.0000 C   0  0  0  0  0  0  0  0  0  0  0  0
   16.3391  -20.1440    0.0000 C   0  0  0  0  0  0  0  0  0  0  0  0
   17.0539  -20.5569    0.0000 C   0  0  0  0  0  0  0  0  0  0  0  0
   17.7703  -20.1435    0.0000 C   0  0  0  0  0  0  0  0  0  0  0  0
   17.7675  -19.3130    0.0000 C   0  0  0  0  0  0  0  0  0  0  0  0
   17.0521  -18.9039    0.0000 C   0  0  0  0  0  0  0  0  0  0  0  0
   18.4804  -18.8978    0.0000 C   0  0  0  0  0  0  0  0  0  0  0  0
   19.1964  -19.3076    0.0000 C   0  0  0  0  0  0  0  0  0  0  0  0
   19.9093  -18.8924    0.0000 C   0  0  0  0  0  0  0  0  0  0  0  0
   20.6253  -19.3022    0.0000 N   0  0  0  0  0  0  0  0  0  0  0  0
   19.9062  -18.0674    0.0000 O   0  0  0  0  0  0  0  0  0  0  0  0
   21.3383  -18.8870    0.0000 C   0  0  0  0  0  0  0  0  0  0  0  0
   22.0502  -19.2986    0.0000 C   0  0  0  0  0  0  0  0  0  0  0  0
   22.7627  -18.8841    0.0000 C   0  0  0  0  0  0  0  0  0  0  0  0
   22.7600  -18.0582    0.0000 C   0  0  0  0  0  0  0  0  0  0  0  0
   22.0390  -17.6486    0.0000 C   0  0  0  0  0  0  0  0  0  0  0  0
   21.3295  -18.0655    0.0000 C   0  0  0  0  0  0  0  0  0  0  0  0
   15.6257  -18.9043    0.0000 O   0  0  0  0  0  0  0  0  0  0  0  0
   15.6255  -18.0793    0.0000 C   0  0  0  0  0  0  0  0  0  0  0  0
   22.0507  -20.1257    0.0000 C   0  0  0  0  0  0  0  0  0  0  0  0
   21.3368  -20.5392    0.0000 O   0  0  0  0  0  0  0  0  0  0  0  0
   22.7657  -20.5372    0.0000 O   0  0  0  0  0  0  0  0  0  0  0  0
   15.6243  -20.5559    0.0000 O   0  0  0  0  0  0  0  0  0  0  0  0
   15.6236  -21.3809    0.0000 C   0  0  0  0  0  0  0  0  0  0  0  0
   14.9088  -21.7929    0.0000 C   0  0  0  0  0  0  0  0  0  0  0  0
   14.9082  -22.6179    0.0000 C   0  0  0  0  0  0  0  0  0  0  0  0
   14.1934  -23.0298    0.0000 C   0  0  0  0  0  0  0  0  0  0  0  0
   13.4750  -23.4375    0.0000 C   0  0  0  0  0  0  0  0  0  0  0  0
 13 14  1  0
  5  7  1  0
 14 15  2  0
  3  4  2  0
 15 16  1  0
  7  8  2  0
 16 17  2  0
 17 12  1  0
  1 18  1  0
  8  9  1  0
 18 19  1  0
  4  5  1  0
  9 10  1  0
  2  3  1  0
 20 21  1  0
 20 22  2  0
 13 20  1  0
  9 11  2  0
  2 23  1  0
  5  6  2  0
 23 24  1  0
 10 12  1  0
 24 25  1  0
  6  1  1  0
 25 26  1  0
 12 13  2  0
 26 27  1  0
  1  2  2  0
 27 28  3  0
M  END

> <chembl_id>
CHEMBL1080194

> <chembl_pref_name>
None

$$$$

     RDKit          2D

131137  0  0  0  0  0  0  0  0999 V2000
   15.5678   -2.9487    0.0000 C   0  0  0  0  0  0  0  0  0  0  0  0
   14.8551   -2.5486    0.0000 C   0  0  0  0  0  0  0  0  0  0  0  0
   15.5769   -3.7671    0.0000 O   0  0  0  0  0  0  0  0  0  0  0  0
   16.2713   -2.5305    0.0000 O   0  0  0  0  0  0  0  0  0  0  0  0
   14.8453   -1.7314    0.0000 F   0  0  0  0  0  0  0  0  0  0  0  0
   14.1524   -2.9656    0.0000 F   0  0  0  0  0  0  0  0  0  0  0  0
   14.1446   -2.1381    0.0000 F   0  0  0  0  0  0  0  0  0  0  0  0
   12.5090   -5.6204    0.0000 N   0  0  0  0  0  0  0  0  0  0  0  0
   18.9329   -6.8198    0.0000 N   0  0  0  0  0  0  0  0  0  0  0  0
   18.2223   -7.2355    0.0000 C   0  0  0  0  0  0  0  0  0  0  0  0
   17.5071   -6.8281    0.0000 C   0  0  0  0  0  0  0  0  0  0  0  0
   18.2272   -8.0586    0.0000 O   0  0  0  0  0  0  0  0  0  0  0  0
   16.7988   -7.2469    0.0000 C   0  0  0  0  0  0  0  0  0  0  0  0
   16.0839   -6.8402    0.0000 C   0  0  0  0  0  0  0  0  0  0  0  0
   16.0787   -6.0161    0.0000 C   0  0  0  0  0  0  0  0  0  0  0  0
   16.7943   -5.6005    0.0000 C   0  0  0  0  0  0  0  0  0  0  0  0
   17.5061   -6.0096    0.0000 C   0  0  0  0  0  0  0  0  0  0  0  0
   15.3640   -5.6076    0.0000 C   0  0  0  0  0  0  0  0  0  0  0  0
   14.6529   -6.0225    0.0000 N   0  0  0  0  0  0  0  0  0  0  0  0
   15.3602   -4.7844    0.0000 O   0  0  0  0  0  0  0  0  0  0  0  0
   13.9381   -5.6140    0.0000 C   0  0  0  0  0  0  0  0  0  0  0  0
   13.2271   -6.0288    0.0000 C   0  0  0  0  0  0  0  0  0  0  0  0
   31.7939   -4.2785    0.0000 C   0  0  0  0  0  0  0  0  0  0  0  0
   28.2204   -7.1836    0.0000 N   0  0  0  0  0  0  0  0  0  0  0  0
   30.3637   -3.4571    0.0000 C   0  0  0  0  0  0  0  0  0  0  0  0
   28.9275   -4.2879    0.0000 C   0  0  0  0  0  0  0  0  0  0  0  0
   26.0639   -5.9540    0.0000 O   0  0  0  0  0  0  0  0  0  0  0  0
   31.7865   -1.8009    0.0000 C   0  0  0  0  0  0  0  0  0  0  0  0
   28.2065   -3.0502    0.0000 C   0  0  0  0  0  0  0  0  0  0  0  0
   26.0672   -6.7809    0.0000 C   0  0  0  0  0  0  0  0  0  0  0  0
   28.2126   -4.7028    0.0000 C   0  0  0  0  0  0  0  0  0  0  0  0
   32.5046   -3.0347    0.0000 C   0  0  0  0  0  0  0  0  0  0  0  0
   29.6453   -3.0444    0.0000 N   0  0  0  0  0  0  0  0  0  0  0  0
   28.2145   -5.5310    0.0000 C   0  0  0  0  0  0  0  0  0  0  0  0
   26.7845   -7.1894    0.0000 N   0  0  0  0  0  0  0  0  0  0  0  0
   32.5115   -4.6885    0.0000 C   0  0  0  0  0  0  0  0  0  0  0  0
   31.0621   -0.5591    0.0000 C   0  0  0  0  0  0  0  0  0  0  0  0
   31.0768   -3.0386    0.0000 C   0  0  0  0  0  0  0  0  0  0  0  0
   28.2046   -2.2221    0.0000 O   0  0  0  0  0  0  0  0  0  0  0  0
   31.7869   -3.4513    0.0000 C   0  0  0  0  0  0  0  0  0  0  0  0
   31.7866   -0.9762    0.0000 C   0  0  0  0  0  0  0  0  0  0  0  0
   25.3533   -7.1951    0.0000 N   0  0  0  0  0  0  0  0  0  0  0  0
   27.5035   -6.7745    0.0000 C   0  0  0  0  0  0  0  0  0  0  0  0
   27.4499   -0.9734    0.0000 C   0  0  0  0  0  0  0  0  0  0  0  0
   30.3543   -1.8045    0.0000 C   0  0  0  0  0  0  0  0  0  0  0  0
   27.4656   -1.7981    0.0000 C   0  0  0  0  0  0  0  0  0  0  0  0
   33.2281   -4.2744    0.0000 C   0  0  0  0  0  0  0  0  0  0  0  0
   26.7226   -0.5700    0.0000 C   0  0  0  0  0  0  0  0  0  0  0  0
   30.3603   -4.2840    0.0000 O   0  0  0  0  0  0  0  0  0  0  0  0
   27.4937   -3.4656    0.0000 N   0  0  0  0  0  0  0  0  0  0  0  0
   30.3495   -0.9783    0.0000 C   0  0  0  0  0  0  0  0  0  0  0  0
   26.7749   -3.0483    0.0000 C   0  0  0  0  0  0  0  0  0  0  0  0
   26.0313   -1.8285    0.0000 C   0  0  0  0  0  0  0  0  0  0  0  0
   24.6360   -6.7866    0.0000 C   0  0  0  0  0  0  0  0  0  0  0  0
   31.0717   -2.2117    0.0000 C   0  0  0  0  0  0  0  0  0  0  0  0
   26.0120   -1.0026    0.0000 C   0  0  0  0  0  0  0  0  0  0  0  0
   26.7601   -2.2216    0.0000 C   0  0  0  0  0  0  0  0  0  0  0  0
   27.5015   -5.9465    0.0000 N   0  0  0  0  0  0  0  0  0  0  0  0
   28.9235   -3.4635    0.0000 C   0  0  0  0  0  0  0  0  0  0  0  0
   33.2235   -3.4467    0.0000 C   0  0  0  0  0  0  0  0  0  0  0  0
   26.7059    0.2541    0.0000 O   0  0  0  0  0  0  0  0  0  0  0  0
   23.9255   -7.2024    0.0000 C   0  0  0  0  0  0  0  0  0  0  0  0
   23.2103   -6.7950    0.0000 O   0  0  0  0  0  0  0  0  0  0  0  0
   22.4998   -7.2106    0.0000 C   0  0  0  0  0  0  0  0  0  0  0  0
   21.7844   -6.8032    0.0000 C   0  0  0  0  0  0  0  0  0  0  0  0
   21.0739   -7.2189    0.0000 O   0  0  0  0  0  0  0  0  0  0  0  0
   20.3586   -6.8115    0.0000 C   0  0  0  0  0  0  0  0  0  0  0  0
   19.6482   -7.2272    0.0000 C   0  0  0  0  0  0  0  0  0  0  0  0
    6.0875   -6.8198    0.0000 N   0  0  0  0  0  0  0  0  0  0  0  0
    6.7980   -7.2355    0.0000 C   0  0  0  0  0  0  0  0  0  0  0  0
    7.5132   -6.8281    0.0000 C   0  0  0  0  0  0  0  0  0  0  0  0
    6.7932   -8.0586    0.0000 O   0  0  0  0  0  0  0  0  0  0  0  0
    8.2216   -7.2469    0.0000 C   0  0  0  0  0  0  0  0  0  0  0  0
    8.9365   -6.8402    0.0000 C   0  0  0  0  0  0  0  0  0  0  0  0
    8.9417   -6.0161    0.0000 C   0  0  0  0  0  0  0  0  0  0  0  0
    8.2261   -5.6005    0.0000 C   0  0  0  0  0  0  0  0  0  0  0  0
    7.5142   -6.0096    0.0000 C   0  0  0  0  0  0  0  0  0  0  0  0
    9.6564   -5.6076    0.0000 C   0  0  0  0  0  0  0  0  0  0  0  0
   10.3674   -6.0225    0.0000 N   0  0  0  0  0  0  0  0  0  0  0  0
    9.6602   -4.7844    0.0000 O   0  0  0  0  0  0  0  0  0  0  0  0
   11.0822   -5.6140    0.0000 C   0  0  0  0  0  0  0  0  0  0  0  0
   11.7933   -6.0288    0.0000 C   0  0  0  0  0  0  0  0  0  0  0  0
   12.5118   -4.7972    0.0000 C   0  0  0  0  0  0  0  0  0  0  0  0
   11.8006   -4.3824    0.0000 C   0  0  0  0  0  0  0  0  0  0  0  0
   11.8044   -3.5593    0.0000 N   0  0  0  0  0  0  0  0  0  0  0  0
   -6.7801   -4.2785    0.0000 C   0  0  0  0  0  0  0  0  0  0  0  0
   -3.2026   -7.1836    0.0000 N   0  0  0  0  0  0  0  0  0  0  0  0
   -5.3500   -3.4571    0.0000 C   0  0  0  0  0  0  0  0  0  0  0  0
   -3.9090   -4.2879    0.0000 C   0  0  0  0  0  0  0  0  0  0  0  0
   -1.0436   -5.9540    0.0000 O   0  0  0  0  0  0  0  0  0  0  0  0
   -6.7710   -1.8009    0.0000 C   0  0  0  0  0  0  0  0  0  0  0  0
   -3.1915   -3.0502    0.0000 C   0  0  0  0  0  0  0  0  0  0  0  0
   -1.0485   -6.7809    0.0000 C   0  0  0  0  0  0  0  0  0  0  0  0
   -3.1939   -4.7028    0.0000 C   0  0  0  0  0  0  0  0  0  0  0  0
   -7.4913   -3.0347    0.0000 C   0  0  0  0  0  0  0  0  0  0  0  0
   -4.6299   -3.0444    0.0000 N   0  0  0  0  0  0  0  0  0  0  0  0
   -3.2002   -5.5310    0.0000 C   0  0  0  0  0  0  0  0  0  0  0  0
   -1.7698   -7.1894    0.0000 N   0  0  0  0  0  0  0  0  0  0  0  0
   -7.4928   -4.6885    0.0000 C   0  0  0  0  0  0  0  0  0  0  0  0
   -6.0484   -0.5591    0.0000 C   0  0  0  0  0  0  0  0  0  0  0  0
   -6.0587   -3.0386    0.0000 C   0  0  0  0  0  0  0  0  0  0  0  0
   -3.1852   -2.2221    0.0000 O   0  0  0  0  0  0  0  0  0  0  0  0
   -6.7706   -3.4513    0.0000 C   0  0  0  0  0  0  0  0  0  0  0  0
   -6.7709   -0.9762    0.0000 C   0  0  0  0  0  0  0  0  0  0  0  0
   -0.3405   -7.1951    0.0000 N   0  0  0  0  0  0  0  0  0  0  0  0
   -2.4893   -6.7745    0.0000 C   0  0  0  0  0  0  0  0  0  0  0  0
   -2.4348   -0.9734    0.0000 C   0  0  0  0  0  0  0  0  0  0  0  0
   -5.3346   -1.8045    0.0000 C   0  0  0  0  0  0  0  0  0  0  0  0
   -2.4524   -1.7981    0.0000 C   0  0  0  0  0  0  0  0  0  0  0  0
   -8.2147   -4.2744    0.0000 C   0  0  0  0  0  0  0  0  0  0  0  0
   -1.7070   -0.5700    0.0000 C   0  0  0  0  0  0  0  0  0  0  0  0
   -5.3450   -4.2840    0.0000 O   0  0  0  0  0  0  0  0  0  0  0  0
   -2.4741   -3.4656    0.0000 N   0  0  0  0  0  0  0  0  0  0  0  0
   -5.3309   -0.9783    0.0000 C   0  0  0  0  0  0  0  0  0  0  0  0
   -1.7628   -3.0483    0.0000 C   0  0  0  0  0  0  0  0  0  0  0  0
   -1.0180   -1.8285    0.0000 C   0  0  0  0  0  0  0  0  0  0  0  0
    0.3842   -6.7866    0.0000 C   0  0  0  0  0  0  0  0  0  0  0  0
   -6.0554   -2.2117    0.0000 C   0  0  0  0  0  0  0  0  0  0  0  0
   -0.9957   -1.0026    0.0000 C   0  0  0  0  0  0  0  0  0  0  0  0
   -1.7443   -2.2216    0.0000 C   0  0  0  0  0  0  0  0  0  0  0  0
   -2.4830   -5.9465    0.0000 N   0  0  0  0  0  0  0  0  0  0  0  0
   -3.9048   -3.4635    0.0000 C   0  0  0  0  0  0  0  0  0  0  0  0
   -8.2110   -3.4467    0.0000 C   0  0  0  0  0  0  0  0  0  0  0  0
   -1.6904    0.2541    0.0000 O   0  0  0  0  0  0  0  0  0  0  0  0
    1.0948   -7.2024    0.0000 C   0  0  0  0  0  0  0  0  0  0  0  0
    1.8100   -6.7950    0.0000 O   0  0  0  0  0  0  0  0  0  0  0  0
    2.5206   -7.2106    0.0000 C   0  0  0  0  0  0  0  0  0  0  0  0
    3.2359   -6.8032    0.0000 C   0  0  0  0  0  0  0  0  0  0  0  0
    3.9463   -7.2189    0.0000 O   0  0  0  0  0  0  0  0  0  0  0  0
    4.6616   -6.8115    0.0000 C   0  0  0  0  0  0  0  0  0  0  0  0
    5.3721   -7.2272    0.0000 C   0  0  0  0  0  0  0  0  0  0  0  0
  1  2  1  0
  1  3  2  0
  1  4  1  0
  2  5  1  0
  2  6  1  0
  2  7  1  0
  9 10  1  0
 10 11  1  0
 10 12  2  0
 11 13  2  0
 13 14  1  0
 14 15  2  0
 15 16  1  0
 16 17  2  0
 17 11  1  0
 15 18  1  0
 18 19  1  0
 18 20  2  0
 19 21  1  0
 21 22  1  0
 22  8  1  0
 56 48  2  0
 36 23  2  0
 23 40  1  0
 25 38  1  0
 45 51  1  0
 46 57  1  0
 53 56  1  0
 57 53  2  0
 30 42  1  0
 51 37  2  0
 43 24  1  0
 55 45  2  0
 50 52  1  0
 35 30  1  0
 38 40  1  0
 29 50  1  0
 32 60  1  0
 29 39  2  0
 30 27  2  0
 41 28  2  0
 48 44  1  0
 37 41  1  0
 43 35  2  0
 58 43  1  0
 33 25  1  0
 59 29  1  0
 31 34  1  0
 59 26  1  0
 34 58  1  0
 59 33  1  1
 42 54  1  0
 52 57  1  0
 28 55  1  0
 26 31  1  0
 38 55  1  0
 40 32  2  0
 47 36  1  0
 44 46  2  0
 25 49  2  0
 60 47  2  0
 48 61  1  0
 54 62  1  0
 62 63  1  0
 63 64  1  0
 64 65  1  0
 65 66  1  0
 66 67  1  0
 67 68  1  0
 68  9  1  0
 69 70  1  0
 70 71  1  0
 70 72  2  0
 71 73  2  0
 73 74  1  0
 74 75  2  0
 75 76  1  0
 76 77  2  0
 77 71  1  0
 75 78  1  0
 78 79  1  0
 78 80  2  0
 79 81  1  0
 81 82  1  0
 82  8  1  0
  8 83  1  0
 83 84  1  0
 84 85  1  0
119111  2  0
 99 86  2  0
 86103  1  0
 88101  1  0
108114  1  0
109120  1  0
116119  1  0
120116  2  0
 93105  1  0
114100  2  0
106 87  1  0
118108  2  0
113115  1  0
 98 93  1  0
101103  1  0
 92113  1  0
 95123  1  0
 92102  2  0
 93 90  2  0
104 91  2  0
111107  1  0
100104  1  0
106 98  2  0
121106  1  0
 96 88  1  0
122 92  1  0
 94 97  1  0
122 89  1  0
 97121  1  0
122 96  1  6
105117  1  0
115120  1  0
 91118  1  0
 89 94  1  0
101118  1  0
103 95  2  0
110 99  1  0
107109  2  0
 88112  2  0
123110  2  0
111124  1  0
117125  1  0
125126  1  0
126127  1  0
127128  1  0
128129  1  0
129130  1  0
130131  1  0
131 69  1  0
M  END

> <chembl_id>
CHEMBL2440915

> <chembl_pref_name>
None

$$$$

     RDKit          2D

 68 69  0  0  0  0  0  0  0  0999 V2000
   17.7556  -12.3803    0.0000 C   0  0  0  0  0  0  0  0  0  0  0  0
   17.0431  -11.9802    0.0000 C   0  0  0  0  0  0  0  0  0  0  0  0
   17.7647  -13.1987    0.0000 O   0  0  0  0  0  0  0  0  0  0  0  0
   18.4591  -11.9621    0.0000 O   0  0  0  0  0  0  0  0  0  0  0  0
   17.0333  -11.1631    0.0000 F   0  0  0  0  0  0  0  0  0  0  0  0
   16.3403  -12.3973    0.0000 F   0  0  0  0  0  0  0  0  0  0  0  0
   16.3326  -11.5699    0.0000 F   0  0  0  0  0  0  0  0  0  0  0  0
   13.0872  -10.5016    0.0000 C   0  0  0  0  0  0  0  0  0  0  0  0
   13.7989  -10.0891    0.0000 C   0  0  0  0  0  0  0  0  0  0  0  0
   14.5147  -10.5016    0.0000 C   0  0  0  0  0  0  0  0  0  0  0  0
   15.2265  -10.0891    0.0000 C   0  0  0  0  0  0  0  0  0  0  0  0
   13.0872  -11.3266    0.0000 O   0  0  0  0  0  0  0  0  0  0  0  0
   12.3714  -10.0891    0.0000 N   0  0  0  0  0  0  0  0  0  0  0  0
   15.9423  -10.5016    0.0000 O   0  0  0  0  0  0  0  0  0  0  0  0
   15.2265   -9.2641    0.0000 N   0  0  0  0  0  0  0  0  0  0  0  0
   15.9423   -8.8517    0.0000 C   0  0  0  0  0  0  0  0  0  0  0  0
   16.6582   -9.2641    0.0000 C   0  0  0  0  0  0  0  0  0  0  0  0
   17.3741   -8.8517    0.0000 O   0  0  0  0  0  0  0  0  0  0  0  0
   18.0857   -9.2641    0.0000 C   0  0  0  0  0  0  0  0  0  0  0  0
   18.8016   -8.8517    0.0000 C   0  0  0  0  0  0  0  0  0  0  0  0
   19.5133   -9.2641    0.0000 O   0  0  0  0  0  0  0  0  0  0  0  0
   20.2292   -8.8517    0.0000 C   0  0  0  0  0  0  0  0  0  0  0  0
   20.9449   -9.2641    0.0000 C   0  0  0  0  0  0  0  0  0  0  0  0
   21.6608   -8.8517    0.0000 N   0  0  0  0  0  0  0  0  0  0  0  0
    8.7963  -11.3266    0.0000 C   0  0  0  0  0  0  0  0  0  0  0  0
    8.0845  -11.7391    0.0000 N   0  0  0  0  0  0  0  0  0  0  0  0
    8.0845  -12.5641    0.0000 C   0  0  0  0  0  0  0  0  0  0  0  0
    7.3687  -12.9766    0.0000 C   0  0  0  0  0  0  0  0  0  0  0  0
    7.3687  -13.8016    0.0000 C   0  0  0  0  0  0  0  0  0  0  0  0
    8.0845  -14.2141    0.0000 C   0  0  0  0  0  0  0  0  0  0  0  0
    8.7963  -13.8016    0.0000 C   0  0  0  0  0  0  0  0  0  0  0  0
    9.5121  -14.2141    0.0000 N   0  0  0  0  0  0  0  0  0  0  0  0
   10.2279  -13.8016    0.0000 C   0  0  0  0  0  0  0  0  0  0  0  0
   10.2279  -12.9766    0.0000 N   0  0  0  0  0  0  0  0  0  0  0  0
   10.9396  -12.5641    0.0000 C   0  0  0  0  0  0  0  0  0  0  0  0
   10.9396  -11.7391    0.0000 N   0  0  0  0  0  0  0  0  0  0  0  0
   11.6555  -11.3266    0.0000 C   0  0  0  0  0  0  0  0  0  0  0  0
   11.6555  -10.5016    0.0000 C   0  0  0  0  0  0  0  0  0  0  0  0
    8.7963  -10.5016    0.0000 C   0  0  0  0  0  0  0  0  0  0  0  0
    8.0845  -10.0891    0.0000 C   0  0  0  0  0  0  0  0  0  0  0  0
    8.0845   -9.2641    0.0000 C   0  0  0  0  0  0  0  0  0  0  0  0
    8.7963   -8.8517    0.0000 C   0  0  0  0  0  0  0  0  0  0  0  0
    9.5121   -9.2641    0.0000 C   0  0  0  0  0  0  0  0  0  0  0  0
    9.5121  -10.0891    0.0000 C   0  0  0  0  0  0  0  0  0  0  0  0
    8.7963   -8.0267    0.0000 C   0  0  0  0  0  0  0  0  0  0  0  0
    9.5121   -7.6142    0.0000 N   0  0  0  0  0  0  0  0  0  0  0  0
    9.5121   -6.7892    0.0000 C   0  0  0  0  0  0  0  0  0  0  0  0
   10.2279   -6.3767    0.0000 O   0  0  0  0  0  0  0  0  0  0  0  0
    8.7963   -6.3767    0.0000 N   0  0  0  0  0  0  0  0  0  0  0  0
   11.6555  -12.9766    0.0000 O   0  0  0  0  0  0  0  0  0  0  0  0
    8.7963  -12.9766    0.0000 O   0  0  0  0  0  0  0  0  0  0  0  0
    6.6570  -12.5641    0.0000 N   0  0  0  0  0  0  0  0  0  0  0  0
    5.9412  -12.9766    0.0000 C   0  0  0  0  0  0  0  0  0  0  0  0
    5.9412  -13.8016    0.0000 O   0  0  0  0  0  0  0  0  0  0  0  0
    5.2253  -12.5641    0.0000 C   0  0  0  0  0  0  0  0  0  0  0  0
    4.5094  -12.9766    0.0000 C   0  0  0  0  0  0  0  0  0  0  0  0
    4.5094  -13.8016    0.0000 C   0  0  0  0  0  0  0  0  0  0  0  0
    3.7977  -14.2141    0.0000 C   0  0  0  0  0  0  0  0  0  0  0  0
    3.0818  -13.8016    0.0000 C   0  0  0  0  0  0  0  0  0  0  0  0
    3.0818  -12.9766    0.0000 C   0  0  0  0  0  0  0  0  0  0  0  0
    3.7977  -12.5641    0.0000 C   0  0  0  0  0  0  0  0  0  0  0  0
    5.2253  -11.7391    0.0000 C   0  0  0  0  0  0  0  0  0  0  0  0
    4.5094  -11.3266    0.0000 C   0  0  0  0  0  0  0  0  0  0  0  0
    4.5094  -10.5016    0.0000 C   0  0  0  0  0  0  0  0  0  0  0  0
    5.2253  -10.0891    0.0000 C   0  0  0  0  0  0  0  0  0  0  0  0
    5.9412  -10.5016    0.0000 C   0  0  0  0  0  0  0  0  0  0  0  0
    5.9412  -11.3266    0.0000 C   0  0  0  0  0  0  0  0  0  0  0  0
   10.9396  -14.2141    0.0000 N   0  0  0  0  0  0  0  0  0  0  0  0
  1  2  1  0
  1  3  2  0
  1  4  1  0
  2  5  1  0
  2  6  1  0
  2  7  1  0
  8  9  1  0
  9 10  1  0
 10 11  1  0
  8 12  2  0
  8 13  1  0
 11 14  2  0
 11 15  1  0
 16 17  1  0
 19 20  1  0
 18 19  1  0
 22 23  1  0
 21 22  1  0
 23 24  1  0
 20 21  1  0
 17 18  1  0
 15 16  1  0
 25 26  1  0
 26 27  1  0
 27 28  1  0
 28 29  1  0
 29 30  1  0
 30 31  1  0
 31 32  1  0
 32 33  1  0
 33 34  2  0
 34 35  1  0
 35 36  1  0
 36 37  1  0
 37 38  1  0
 39 40  1  0
 40 41  2  0
 41 42  1  0
 42 43  2  0
 43 44  1  0
 39 44  2  0
 46 47  1  0
 47 48  2  0
 47 49  1  0
 45 46  1  0
 42 45  1  0
 25 39  1  0
 35 50  2  0
 27 51  2  0
 53 54  2  0
 53 55  1  0
 52 53  1  0
 56 57  1  0
 57 58  2  0
 58 59  1  0
 59 60  2  0
 60 61  1  0
 56 61  2  0
 55 56  1  0
 62 63  1  0
 63 64  2  0
 64 65  1  0
 65 66  2  0
 66 67  1  0
 62 67  2  0
 55 62  1  0
 28 52  1  1
 33 68  1  0
 13 38  1  0
M  END

> <chembl_id>
CHEMBL2440908

> <chembl_pref_name>
None

$$$$

     RDKit          2D

 28 30  0  0  0  0  0  0  0  0999 V2000
    5.7175   -3.2133    0.0000 Cl  0  0  0  0  0  0  0  0  0  0  0  0
    4.8411   -5.3702    0.0000 O   0  0  0  0  0  0  0  0  0  0  0  0
    6.8612   -6.8852    0.0000 O   0  0  0  0  0  0  0  0  0  0  0  0
   11.1481   -6.0602    0.0000 O   0  0  0  0  0  0  0  0  0  0  0  0
   10.4336   -4.8227    0.0000 O   0  0  0  0  0  0  0  0  0  0  0  0
    5.2536   -4.6557    0.0000 N   0  0  0  0  0  0  0  0  0  0  0  0
    7.5757   -5.6477    0.0000 N   0  0  0  0  0  0  0  0  0  0  0  0
    6.1468   -5.6477    0.0000 C   0  0  0  0  0  0  0  0  0  0  0  0
    6.0605   -4.8272    0.0000 C   0  0  0  0  0  0  0  0  0  0  0  0
    6.6736   -4.2752    0.0000 C   0  0  0  0  0  0  0  0  0  0  0  0
    5.3931   -5.9833    0.0000 C   0  0  0  0  0  0  0  0  0  0  0  0
    6.8612   -6.0602    0.0000 C   0  0  0  0  0  0  0  0  0  0  0  0
    6.5021   -3.4682    0.0000 C   0  0  0  0  0  0  0  0  0  0  0  0
    7.4583   -4.5301    0.0000 C   0  0  0  0  0  0  0  0  0  0  0  0
    8.2902   -6.0602    0.0000 C   0  0  0  0  0  0  0  0  0  0  0  0
    7.1152   -2.9162    0.0000 C   0  0  0  0  0  0  0  0  0  0  0  0
    5.2216   -6.7902    0.0000 C   0  0  0  0  0  0  0  0  0  0  0  0
    9.7191   -6.0602    0.0000 C   0  0  0  0  0  0  0  0  0  0  0  0
    9.0047   -5.6477    0.0000 C   0  0  0  0  0  0  0  0  0  0  0  0
    8.0713   -3.9781    0.0000 C   0  0  0  0  0  0  0  0  0  0  0  0
    8.2902   -6.8852    0.0000 C   0  0  0  0  0  0  0  0  0  0  0  0
    7.8998   -3.1711    0.0000 C   0  0  0  0  0  0  0  0  0  0  0  0
   10.4336   -5.6477    0.0000 C   0  0  0  0  0  0  0  0  0  0  0  0
    9.7191   -6.8852    0.0000 C   0  0  0  0  0  0  0  0  0  0  0  0
    9.0047   -7.2977    0.0000 C   0  0  0  0  0  0  0  0  0  0  0  0
   11.8625   -5.6477    0.0000 C   0  0  0  0  0  0  0  0  0  0  0  0
   12.5770   -6.0602    0.0000 C   0  0  0  0  0  0  0  0  0  0  0  0
   13.2915   -5.6477    0.0000 C   0  0  0  0  0  0  0  0  0  0  0  0
  1 13  1  0
  2  6  1  0
  2 11  1  0
  3 12  2  0
  4 23  1  0
  4 26  1  0
  5 23  2  0
  6  9  2  0
  7 12  1  0
  7 15  1  0
  8  9  1  0
  8 11  2  0
  8 12  1  0
  9 10  1  0
 10 13  2  0
 10 14  1  0
 11 17  1  0
 13 16  1  0
 14 20  2  0
 15 19  2  0
 15 21  1  0
 16 22  2  0
 18 19  1  0
 18 23  1  0
 18 24  2  0
 20 22  1  0
 21 25  2  0
 24 25  1  0
 26 27  1  0
 27 28  1  0
M  END

> <chembl_id>
CHEMBL1560694

> <chembl_pref_name>
None

$$$$

     RDKit          2D

 27 30  0  0  0  0  0  0  0  0999 V2000
   11.6200   -7.9300    0.0000 C   0  0  0  0  0  0  0  0  0  0  0  0
   11.6187   -8.7528    0.0000 C   0  0  0  0  0  0  0  0  0  0  0  0
   12.3277   -9.1635    0.0000 C   0  0  0  0  0  0  0  0  0  0  0  0
   12.3257   -7.5195    0.0000 C   0  0  0  0  0  0  0  0  0  0  0  0
   13.0397   -7.9259    0.0000 C   0  0  0  0  0  0  0  0  0  0  0  0
   13.0389   -8.7549    0.0000 C   0  0  0  0  0  0  0  0  0  0  0  0
   13.7523   -9.1678    0.0000 C   0  0  0  0  0  0  0  0  0  0  0  0
   14.4713   -8.7565    0.0000 C   0  0  0  0  0  0  0  0  0  0  0  0
   13.7541   -7.5100    0.0000 C   0  0  0  0  0  0  0  0  0  0  0  0
   14.4732   -7.9307    0.0000 C   0  0  0  0  0  0  0  0  0  0  0  0
   14.4811   -6.2675    0.0000 C   0  0  0  0  0  0  0  0  0  0  0  0
   13.7550   -6.6792    0.0000 C   0  0  0  0  0  0  0  0  0  0  0  0
   13.7453   -8.3265    0.0000 H   0  0  0  0  0  0  0  0  0  0  0  0
   15.1809   -8.3356    0.0000 H   0  0  0  0  0  0  0  0  0  0  0  0
   14.4654   -7.1096    0.0000 H   0  0  0  0  0  0  0  0  0  0  0  0
   15.1946   -5.8655    0.0000 C   0  0  0  0  0  0  0  0  0  0  0  0
   10.9077   -9.1620    0.0000 O   0  0  0  0  0  0  0  0  0  0  0  0
   15.1991   -6.6904    0.0000 C   0  0  0  0  0  0  0  0  0  0  0  0
   15.1894   -7.5175    0.0000 C   0  0  0  0  0  0  0  0  0  0  0  0
   15.8968   -7.9373    0.0000 C   0  0  0  0  0  0  0  0  0  0  0  0
   16.6187   -7.5345    0.0000 C   0  0  0  0  0  0  0  0  0  0  0  0
   16.6285   -6.7072    0.0000 C   0  0  0  0  0  0  0  0  0  0  0  0
   15.9164   -6.2828    0.0000 C   0  0  0  0  0  0  0  0  0  0  0  0
   15.9250   -5.4626    0.0000 O   0  0  0  0  0  0  0  0  0  0  0  0
   10.9091   -7.5204    0.0000 C   0  0  0  0  0  0  0  0  0  0  0  0
   10.9085   -6.7000    0.0000 C   0  0  0  0  0  0  0  0  0  0  0  0
   10.1977   -6.2905    0.0000 C   0  0  0  0  0  0  0  0  0  0  0  0
 11 12  1  0
  2  3  1  0
  9 13  1  6
  3  6  2  0
 19 14  1  6
  1  2  2  0
 10 15  1  1
  5  9  1  0
 18 16  1  1
  6  7  1  0
  2 17  1  0
 18 19  1  0
  7  8  1  0
  8 10  1  0
  9 10  1  0
  5  4  2  0
  4  1  1  0
  5  6  1  0
 18 23  1  0
 19 20  1  0
 20 21  1  0
 21 22  1  0
 22 23  1  0
 23 24  2  0
  9 12  1  0
  1 25  1  0
 10 19  1  0
 25 26  1  0
 18 11  1  0
 26 27  2  0
M  END

> <chembl_id>
CHEMBL1080634

> <chembl_pref_name>
None

$$$$

     RDKit          2D

 19 19  0  0  0  0  0  0  0  0999 V2000
    4.1372    0.0000    0.0000 Cl  0  0  0  0  0  0  0  0  0  0  0  0
   -2.3419    0.4929    0.0000 Cl  0  0  0  0  0  0  0  0  0  0  0  0
   -0.9129    2.9679    0.0000 Cl  0  0  0  0  0  0  0  0  0  0  0  0
   -0.9129   -0.3321    0.0000 O   0  0  0  0  0  0  0  0  0  0  0  0
    1.2305    0.9054    0.0000 O   0  0  0  0  0  0  0  0  0  0  0  0
    0.5160   -0.3321    0.0000 N   0  0  0  0  0  0  0  0  0  0  0  0
    1.2305   -0.7446    0.0000 N   0  0  0  0  0  0  0  0  0  0  0  0
   -0.1985    0.9054    0.0000 C   0  0  0  0  0  0  0  0  0  0  0  0
   -0.9129    0.4929    0.0000 C   0  0  0  0  0  0  0  0  0  0  0  0
   -1.6274    0.9054    0.0000 C   0  0  0  0  0  0  0  0  0  0  0  0
    0.5160    0.4929    0.0000 C   0  0  0  0  0  0  0  0  0  0  0  0
   -0.1985    1.7304    0.0000 C   0  0  0  0  0  0  0  0  0  0  0  0
   -0.9129    2.1429    0.0000 C   0  0  0  0  0  0  0  0  0  0  0  0
   -1.6274    1.7304    0.0000 C   0  0  0  0  0  0  0  0  0  0  0  0
    1.2305   -1.5696    0.0000 C   0  0  0  0  0  0  0  0  0  0  0  0
    1.8979   -2.0546    0.0000 C   0  0  0  0  0  0  0  0  0  0  0  0
    0.5630   -2.0546    0.0000 C   0  0  0  0  0  0  0  0  0  0  0  0
    1.6430   -2.8392    0.0000 C   0  0  0  0  0  0  0  0  0  0  0  0
    0.8180   -2.8392    0.0000 C   0  0  0  0  0  0  0  0  0  0  0  0
  2 10  1  0
  3 13  1  0
  4  9  1  0
  5 11  2  0
  6  7  1  0
  6 11  1  0
  7 15  2  0
  8  9  1  0
  8 11  1  0
  8 12  2  0
  9 10  2  0
 10 14  1  0
 12 13  1  0
 13 14  2  0
 15 16  1  0
 15 17  1  0
 16 18  1  0
 17 19  1  0
 18 19  1  0
M  END

> <chembl_id>
CHEMBL1707824

> <chembl_pref_name>
None

$$$$

     RDKit          2D

 37 39  0  0  1  0  0  0  0  0999 V2000
    2.9875   -4.5292    0.0000 C   0  0  0  0  0  0  0  0  0  0  0  0
    2.2667   -4.1167    0.0000 C   0  0  0  0  0  0  0  0  0  0  0  0
    6.5417   -5.0250    0.0000 C   0  0  0  0  0  0  0  0  0  0  0  0
    3.7792   -4.3125    0.0000 C   0  0  0  0  0  0  0  0  0  0  0  0
    4.3667   -4.8917    0.0000 C   0  0  0  0  0  0  0  0  0  0  0  0
    1.5542   -4.5292    0.0000 C   0  0  0  0  0  0  0  0  0  0  0  0
    5.7417   -5.2500    0.0000 C   0  0  0  0  0  0  0  0  0  0  0  0
    2.2667   -3.2917    0.0000 O   0  0  0  0  0  0  0  0  0  0  0  0
    5.1542   -4.6667    0.0000 C   0  0  0  0  0  0  0  0  0  0  0  0
    3.6917   -0.8125    0.0000 C   0  0  0  0  0  0  0  0  0  0  0  0
    2.9750   -0.4042    0.0000 C   0  0  0  0  0  0  0  0  0  0  0  0
    2.9875   -5.3542    0.0000 C   0  0  0  0  0  0  0  0  0  0  0  0
    4.4917   -3.8917    0.0000 C   0  0  0  0  0  0  0  0  0  0  0  0
    1.5542   -5.3542    0.0000 C   0  0  0  0  0  0  0  0  0  0  0  0
    4.4042   -0.4000    0.0000 O   0  0  0  0  0  0  0  0  0  0  0  0
    2.2667   -5.7667    0.0000 C   0  0  0  0  0  0  0  0  0  0  0  0
    4.4042   -1.2250    0.0000 O   0  0  0  0  0  0  0  0  0  0  0  0
    2.2542   -0.8167    0.0000 C   0  0  0  0  0  0  0  0  0  0  0  0
    2.2542   -1.6417    0.0000 C   0  0  0  0  0  0  0  0  0  0  0  0
    7.2667   -4.8250    0.0000 F   0  0  0  0  0  0  0  0  0  0  0  0
    7.2417   -5.5250    0.0000 F   0  0  0  0  0  0  0  0  0  0  0  0
    6.8875   -4.2375    0.0000 F   0  0  0  0  0  0  0  0  0  0  0  0
    5.2125   -4.3042    0.0000 C   0  0  0  0  0  0  0  0  0  0  0  0
    4.4875   -3.0750    0.0000 C   0  0  0  0  0  0  0  0  0  0  0  0
    2.9792   -2.8792    0.0000 C   0  0  0  0  0  0  0  0  0  0  0  0
    5.9167   -3.0625    0.0000 C   0  0  0  0  0  0  0  0  0  0  0  0
    5.1917   -2.6542    0.0000 C   0  0  0  0  0  0  0  0  0  0  0  0
    5.9167   -3.8875    0.0000 C   0  0  0  0  0  0  0  0  0  0  0  0
    6.6292   -2.6417    0.0000 F   0  0  0  0  0  0  0  0  0  0  0  0
    4.1542   -5.6875    0.0000 C   0  0  0  0  0  0  0  0  0  0  0  0
    2.9792   -2.0542    0.0000 C   0  0  0  0  0  0  0  0  0  0  0  0
    1.5417   -0.4042    0.0000 O   0  0  0  0  0  0  0  0  0  0  0  0
    3.6917   -1.6375    0.0000 O   0  0  0  0  0  0  0  0  0  0  0  0
    5.5375   -6.0500    0.0000 C   0  0  0  0  0  0  0  0  0  0  0  0
    0.8417   -4.1167    0.0000 C   0  0  0  0  0  0  0  0  0  0  0  0
    4.7417   -6.2667    0.0000 C   0  0  0  0  0  0  0  0  0  0  0  0
    2.2667   -6.5917    0.0000 C   0  0  0  0  0  0  0  0  0  0  0  0
  2  1  2  0
  3  7  1  0
  4  1  1  0
  5  4  1  0
  6  2  1  0
  7  9  2  0
  8  2  1  0
  9  5  1  0
 10 11  1  0
 11 18  1  0
 12  1  1  0
 13  4  1  0
 14 16  1  0
 15 10  1  0
 16 12  2  0
 17 10  2  0
 18 19  1  0
 19 31  1  0
 20  3  1  0
 21  3  1  0
 22  3  1  0
 23 13  2  0
 24 13  1  0
 25  8  1  0
 26 27  1  0
 27 24  2  0
 28 23  1  0
 29 26  1  0
 30  5  2  0
 25 31  1  0
 18 32  1  1
 33 31  1  0
 34 36  2  0
 35  6  1  0
 36 30  1  0
 37 16  1  0
  6 14  2  0
 28 26  2  0
  7 34  1  0
M  END

> <chembl_id>
CHEMBL1205462

> <chembl_pref_name>
None

$$$$

     RDKit          2D

 28 30  0  0  0  0  0  0  0  0999 V2000
   -0.8398    2.1438    0.0000 Cl  0  0  0  0  0  0  0  0  0  0  0  0
    0.5892   -1.1562    0.0000 O   0  0  0  0  0  0  0  0  0  0  0  0
   -2.2687   -8.5812    0.0000 O   0  0  0  0  0  0  0  0  0  0  0  0
   -0.1253   -2.3937    0.0000 N   0  0  0  0  0  0  0  0  0  0  0  0
   -0.1253   -4.0437    0.0000 N   0  0  0  0  0  0  0  0  0  0  0  0
   -0.8398   -1.1562    0.0000 N   0  0  0  0  0  0  0  0  0  0  0  0
   -0.8398   -6.1062    0.0000 N   0  0  0  0  0  0  0  0  0  0  0  0
   -2.9832   -6.5187    0.0000 C   0  0  0  0  0  0  0  0  0  0  0  0
   -1.5542   -6.5187    0.0000 C   0  0  0  0  0  0  0  0  0  0  0  0
   -0.1253   -1.5687    0.0000 C   0  0  0  0  0  0  0  0  0  0  0  0
   -2.2687   -6.1062    0.0000 C   0  0  0  0  0  0  0  0  0  0  0  0
   -2.9832   -7.3437    0.0000 C   0  0  0  0  0  0  0  0  0  0  0  0
   -2.2687   -7.7562    0.0000 C   0  0  0  0  0  0  0  0  0  0  0  0
   -1.5542   -7.3437    0.0000 C   0  0  0  0  0  0  0  0  0  0  0  0
    0.5892   -2.8062    0.0000 C   0  0  0  0  0  0  0  0  0  0  0  0
   -0.8398   -2.8062    0.0000 C   0  0  0  0  0  0  0  0  0  0  0  0
   -0.8398   -0.3312    0.0000 C   0  0  0  0  0  0  0  0  0  0  0  0
    0.5892   -3.6312    0.0000 C   0  0  0  0  0  0  0  0  0  0  0  0
   -0.8398   -3.6312    0.0000 C   0  0  0  0  0  0  0  0  0  0  0  0
   -0.1253   -4.8687    0.0000 C   0  0  0  0  0  0  0  0  0  0  0  0
   -0.8398   -5.2812    0.0000 C   0  0  0  0  0  0  0  0  0  0  0  0
   -1.5542    0.0813    0.0000 C   0  0  0  0  0  0  0  0  0  0  0  0
   -0.1253    0.0813    0.0000 C   0  0  0  0  0  0  0  0  0  0  0  0
   -3.4204   -5.8191    0.0000 C   0  0  0  0  0  0  0  0  0  0  0  0
   -3.8077   -6.4899    0.0000 C   0  0  0  0  0  0  0  0  0  0  0  0
   -0.8398    1.3188    0.0000 C   0  0  0  0  0  0  0  0  0  0  0  0
   -1.5542    0.9063    0.0000 C   0  0  0  0  0  0  0  0  0  0  0  0
   -0.1253    0.9063    0.0000 C   0  0  0  0  0  0  0  0  0  0  0  0
  1 26  1  0
  2 10  2  0
  3 13  2  0
  4 10  1  0
  4 15  1  0
  4 16  1  0
  5 18  1  0
  5 19  1  0
  5 20  1  0
  6 10  1  0
  6 17  1  0
  7  9  1  0
  7 21  1  0
  8 11  1  0
  8 12  1  0
  8 24  1  0
  8 25  1  0
  9 11  1  0
  9 14  2  0
 12 13  1  0
 13 14  1  0
 15 18  1  0
 16 19  1  0
 17 22  2  0
 17 23  1  0
 20 21  1  0
 22 27  1  0
 23 28  2  0
 26 27  2  0
 26 28  1  0
M  END

> <chembl_id>
CHEMBL1406946

> <chembl_pref_name>
None

$$$$

     RDKit          2D

 28 30  0  0  0  0  0  0  0  0999 V2000
    6.4551   -6.4651    0.0000 S   0  0  0  0  0  0  0  0  0  0  0  0
    5.7368   -6.8771    0.0000 C   0  0  0  0  0  0  0  0  0  0  0  0
    5.7309   -7.7567    0.0000 C   0  0  0  0  0  0  0  0  0  0  0  0
    5.0177   -8.1691    0.0000 C   0  0  0  0  0  0  0  0  0  0  0  0
    5.0239   -6.4606    0.0000 C   0  0  0  0  0  0  0  0  0  0  0  0
    5.0284   -5.6349    0.0000 C   0  0  0  0  0  0  0  0  0  0  0  0
    4.3066   -6.8696    0.0000 O   0  0  0  0  0  0  0  0  0  0  0  0
    5.7468   -5.2292    0.0000 C   0  0  0  0  0  0  0  0  0  0  0  0
    5.7515   -4.4043    0.0000 C   0  0  0  0  0  0  0  0  0  0  0  0
    5.0381   -3.9867    0.0000 C   0  0  0  0  0  0  0  0  0  0  0  0
    4.3184   -4.4002    0.0000 C   0  0  0  0  0  0  0  0  0  0  0  0
    4.3172   -5.2237    0.0000 C   0  0  0  0  0  0  0  0  0  0  0  0
    4.3082   -7.7501    0.0000 C   0  0  0  0  0  0  0  0  0  0  0  0
    3.5910   -8.1578    0.0000 C   0  0  0  0  0  0  0  0  0  0  0  0
    3.5853   -8.9844    0.0000 C   0  0  0  0  0  0  0  0  0  0  0  0
    4.3029   -9.4015    0.0000 C   0  0  0  0  0  0  0  0  0  0  0  0
    5.0171   -8.9914    0.0000 C   0  0  0  0  0  0  0  0  0  0  0  0
    7.1690   -6.8798    0.0000 C   0  0  0  0  0  0  0  0  0  0  0  0
    7.1648   -7.7033    0.0000 C   0  0  0  0  0  0  0  0  0  0  0  0
    7.8779   -8.1181    0.0000 C   0  0  0  0  0  0  0  0  0  0  0  0
    8.5951   -7.7071    0.0000 C   0  0  0  0  0  0  0  0  0  0  0  0
    8.5946   -6.8771    0.0000 C   0  0  0  0  0  0  0  0  0  0  0  0
    7.8809   -6.4661    0.0000 C   0  0  0  0  0  0  0  0  0  0  0  0
    5.0414   -3.1610    0.0000 Br  0  0  0  0  0  0  0  0  0  0  0  0
    9.3096   -8.1208    0.0000 Br  0  0  0  0  0  0  0  0  0  0  0  0
    5.7315   -9.4055    0.0000 N   0  0  0  0  0  0  0  0  0  0  0  0
    4.3006  -10.2272    0.0000 Br  0  0  0  0  0  0  0  0  0  0  0  0
    2.8787   -7.7401    0.0000 Br  0  0  0  0  0  0  0  0  0  0  0  0
  6  8  2  0
 14 15  2  0
  2  5  1  0
 15 16  1  0
  8  9  1  0
 16 17  2  0
 17  4  1  0
  2  1  1  0
  1 18  1  0
  9 10  2  0
 18 19  2  0
  5  6  1  0
 19 20  1  0
 10 11  1  0
 20 21  2  0
  3  4  1  0
 21 22  1  0
 11 12  2  0
 22 23  2  0
 23 18  1  0
 12  6  1  0
 10 24  1  0
  5  7  2  0
 21 25  1  0
  4 13  2  0
 17 26  1  0
  2  3  2  0
 16 27  1  0
 13 14  1  0
 14 28  1  0
M  END

> <chembl_id>
CHEMBL1241694

> <chembl_pref_name>
None

$$$$

     RDKit          2D

 31 33  0  0  0  0  0  0  0  0999 V2000
    2.1861  -20.2458    0.0000 C   0  0  0  0  0  0  0  0  0  0  0  0
    2.1849  -21.0732    0.0000 C   0  0  0  0  0  0  0  0  0  0  0  0
    2.8997  -21.4860    0.0000 C   0  0  0  0  0  0  0  0  0  0  0  0
    2.8979  -19.8330    0.0000 C   0  0  0  0  0  0  0  0  0  0  0  0
    3.6133  -20.2422    0.0000 C   0  0  0  0  0  0  0  0  0  0  0  0
    3.6136  -21.0686    0.0000 C   0  0  0  0  0  0  0  0  0  0  0  0
    4.3997  -21.3238    0.0000 N   0  0  0  0  0  0  0  0  0  0  0  0
    4.3992  -19.9866    0.0000 C   0  0  0  0  0  0  0  0  0  0  0  0
    4.8857  -20.6592    0.0000 C   0  0  0  0  0  0  0  0  0  0  0  0
    5.7069  -20.5747    0.0000 C   0  0  0  0  0  0  0  0  0  0  0  0
    6.0480  -19.8186    0.0000 C   0  0  0  0  0  0  0  0  0  0  0  0
    5.5616  -19.1460    0.0000 C   0  0  0  0  0  0  0  0  0  0  0  0
    4.7339  -19.2295    0.0000 C   0  0  0  0  0  0  0  0  0  0  0  0
    4.6535  -22.1088    0.0000 C   0  0  0  0  0  0  0  0  0  0  0  0
    4.1006  -22.7211    0.0000 C   0  0  0  0  0  0  0  0  0  0  0  0
    4.3544  -23.5061    0.0000 F   0  0  0  0  0  0  0  0  0  0  0  0
    4.3281  -18.5112    0.0000 C   0  0  0  0  0  0  0  0  0  0  0  0
    4.7472  -17.8006    0.0000 N   0  0  0  0  0  0  0  0  0  0  0  0
    3.5031  -18.5036    0.0000 O   0  0  0  0  0  0  0  0  0  0  0  0
    4.3414  -17.0824    0.0000 C   0  0  0  0  0  0  0  0  0  0  0  0
    5.5722  -17.8083    0.0000 C   0  0  0  0  0  0  0  0  0  0  0  0
    5.9913  -17.0977    0.0000 C   0  0  0  0  0  0  0  0  0  0  0  0
    6.8162  -17.1053    0.0000 C   0  0  0  0  0  0  0  0  0  0  0  0
    7.2354  -16.3947    0.0000 C   0  0  0  0  0  0  0  0  0  0  0  0
    8.0603  -16.4024    0.0000 C   0  0  0  0  0  0  0  0  0  0  0  0
    8.4795  -15.6918    0.0000 C   0  0  0  0  0  0  0  0  0  0  0  0
    4.7605  -16.3717    0.0000 C   0  0  0  0  0  0  0  0  0  0  0  0
    4.3546  -15.6535    0.0000 C   0  0  0  0  0  0  0  0  0  0  0  0
    4.7737  -14.9429    0.0000 C   0  0  0  0  0  0  0  0  0  0  0  0
    4.3679  -14.2246    0.0000 C   0  0  0  0  0  0  0  0  0  0  0  0
    4.7870  -13.5140    0.0000 C   0  0  0  0  0  0  0  0  0  0  0  0
  6  7  1  0
 14 15  1  0
  7  9  1  0
 15 16  1  0
  8  5  1  0
 13 17  1  0
  8  9  2  0
 17 18  1  0
  1  2  2  0
 17 19  2  0
  5  4  2  0
 18 20  1  0
  4  1  1  0
 18 21  1  0
  5  6  1  0
 21 22  1  0
 22 23  1  0
  2  3  1  0
 23 24  1  0
  8 13  1  0
 24 25  1  0
  9 10  1  0
 25 26  1  0
 10 11  1  0
 20 27  1  0
 11 12  1  0
 27 28  1  0
 12 13  1  0
 28 29  1  0
  3  6  2  0
 29 30  1  0
  7 14  1  0
 30 31  1  0
M  ISO  1  16  18
M  END

> <chembl_id>
CHEMBL1946650

> <chembl_pref_name>
None

$$$$

     RDKit          2D

 29 32  0  0  0  0  0  0  0  0999 V2000
    7.3657   -1.6061    0.0000 C   0  0  0  0  0  0  0  0  0  0  0  0
    8.0378   -2.0842    0.0000 S   0  0  0  0  0  0  0  0  0  0  0  0
    8.7013   -1.5937    0.0000 C   0  0  0  0  0  0  0  0  0  0  0  0
    8.4375   -0.8093    0.0000 N   0  0  0  0  0  0  0  0  0  0  0  0
    7.6134   -0.8210    0.0000 C   0  0  0  0  0  0  0  0  0  0  0  0
    7.1787   -0.1219    0.0000 C   0  0  0  0  0  0  0  0  0  0  0  0
    7.5652    0.6082    0.0000 C   0  0  0  0  0  0  0  0  0  0  0  0
    7.1258    1.3000    0.0000 C   0  0  0  0  0  0  0  0  0  0  0  0
    6.3011    1.2747    0.0000 C   0  0  0  0  0  0  0  0  0  0  0  0
    5.9166    0.5400    0.0000 C   0  0  0  0  0  0  0  0  0  0  0  0
    6.3577   -0.1547    0.0000 C   0  0  0  0  0  0  0  0  0  0  0  0
    6.6429   -2.0039    0.0000 C   0  0  0  0  0  0  0  0  0  0  0  0
    6.6261   -2.8287    0.0000 C   0  0  0  0  0  0  0  0  0  0  0  0
    5.9047   -3.2303    0.0000 O   0  0  0  0  0  0  0  0  0  0  0  0
    7.3333   -3.2595    0.0000 O   0  0  0  0  0  0  0  0  0  0  0  0
    9.4876   -1.8420    0.0000 N   0  0  0  0  0  0  0  0  0  0  0  0
    9.4959   -2.6665    0.0000 C   0  0  0  0  0  0  0  0  0  0  0  0
   10.2210   -1.4640    0.0000 C   0  0  0  0  0  0  0  0  0  0  0  0
   10.9127   -1.9140    0.0000 C   0  0  0  0  0  0  0  0  0  0  0  0
   11.6455   -1.5367    0.0000 C   0  0  0  0  0  0  0  0  0  0  0  0
   11.6854   -0.7118    0.0000 C   0  0  0  0  0  0  0  0  0  0  0  0
   10.9864   -0.2656    0.0000 C   0  0  0  0  0  0  0  0  0  0  0  0
   10.2564   -0.6454    0.0000 C   0  0  0  0  0  0  0  0  0  0  0  0
    8.7825   -3.0817    0.0000 C   0  0  0  0  0  0  0  0  0  0  0  0
    8.7897   -3.9059    0.0000 C   0  0  0  0  0  0  0  0  0  0  0  0
    9.5085   -4.3126    0.0000 C   0  0  0  0  0  0  0  0  0  0  0  0
   10.2215   -3.8891    0.0000 C   0  0  0  0  0  0  0  0  0  0  0  0
   10.2108   -3.0663    0.0000 C   0  0  0  0  0  0  0  0  0  0  0  0
    5.8631    1.9739    0.0000 F   0  0  0  0  0  0  0  0  0  0  0  0
  2  3  1  0
 13 14  1  0
 13 15  2  0
  7  8  1  0
  3 16  1  0
  3  4  2  0
 16 17  1  0
  8  9  2  0
 16 18  1  0
  4  5  1  0
 18 19  2  0
  9 10  1  0
 19 20  1  0
  5  1  2  0
 20 21  2  0
 10 11  2  0
 21 22  1  0
 11  6  1  0
 22 23  2  0
 23 18  1  0
  5  6  1  0
 17 24  2  0
  1  2  1  0
 24 25  1  0
  1 12  1  0
 25 26  2  0
 26 27  1  0
 12 13  1  0
 27 28  2  0
 28 17  1  0
  6  7  2  0
  9 29  1  0
M  END

> <chembl_id>
CHEMBL1080695

> <chembl_pref_name>
None

$$$$

     RDKit          2D

 40 44  0  0  0  0  0  0  0  0999 V2000
    4.4622    0.9874    0.0000 C   0  0  0  0  0  0  0  0  0  0  0  0
    4.0539    1.6999    0.0000 N   0  0  0  0  0  0  0  0  0  0  0  0
    3.6411    0.9900    0.0000 C   0  0  0  0  0  0  0  0  0  0  0  0
   -5.1178    0.2750    0.0000 C   0  0  0  0  0  0  0  0  0  0  0  0
   -5.1190   -0.5523    0.0000 C   0  0  0  0  0  0  0  0  0  0  0  0
   -4.4041   -0.9651    0.0000 C   0  0  0  0  0  0  0  0  0  0  0  0
   -4.4059    0.6878    0.0000 C   0  0  0  0  0  0  0  0  0  0  0  0
   -3.6907    0.2787    0.0000 C   0  0  0  0  0  0  0  0  0  0  0  0
   -3.6899   -0.5482    0.0000 C   0  0  0  0  0  0  0  0  0  0  0  0
   -2.9746   -0.9590    0.0000 C   0  0  0  0  0  0  0  0  0  0  0  0
   -2.2597   -0.5444    0.0000 C   0  0  0  0  0  0  0  0  0  0  0  0
   -2.9802    0.6928    0.0000 C   0  0  0  0  0  0  0  0  0  0  0  0
   -2.2638    0.2823    0.0000 C   0  0  0  0  0  0  0  0  0  0  0  0
   -1.6519    0.8368    0.0000 N   0  0  0  0  0  0  0  0  0  0  0  0
   -1.9903    1.5902    0.0000 C   0  0  0  0  0  0  0  0  0  0  0  0
   -2.8111    1.5010    0.0000 C   0  0  0  0  0  0  0  0  0  0  0  0
   -0.9350    0.4285    0.0000 C   0  0  0  0  0  0  0  0  0  0  0  0
   -0.9296   -0.3965    0.0000 O   0  0  0  0  0  0  0  0  0  0  0  0
   -0.2234    0.8456    0.0000 C   0  0  0  0  0  0  0  0  0  0  0  0
    0.4938    0.4379    0.0000 C   0  0  0  0  0  0  0  0  0  0  0  0
    1.2054    0.8550    0.0000 C   0  0  0  0  0  0  0  0  0  0  0  0
    1.9217    0.4439    0.0000 C   0  0  0  0  0  0  0  0  0  0  0  0
    2.6328    0.8603    0.0000 C   0  0  0  0  0  0  0  0  0  0  0  0
    2.6279    1.6862    0.0000 C   0  0  0  0  0  0  0  0  0  0  0  0
    1.9058    2.0938    0.0000 C   0  0  0  0  0  0  0  0  0  0  0  0
    1.1975    1.6749    0.0000 C   0  0  0  0  0  0  0  0  0  0  0  0
   -3.3652    2.1123    0.0000 C   0  0  0  0  0  0  0  0  0  0  0  0
   -3.1129    2.8976    0.0000 Cl  0  0  0  0  0  0  0  0  0  0  0  0
    3.3390    2.1043    0.0000 C   0  0  0  0  0  0  0  0  0  0  0  0
   -2.9729   -1.7840    0.0000 N   0  0  0  0  0  0  0  0  0  0  0  0
    4.7678    2.1156    0.0000 C   0  0  0  0  0  0  0  0  0  0  0  0
    5.4855    1.7088    0.0000 C   0  0  0  0  0  0  0  0  0  0  0  0
    5.5772    0.8918    0.0000 C   0  0  0  0  0  0  0  0  0  0  0  0
    6.3855    0.7267    0.0000 C   0  0  0  0  0  0  0  0  0  0  0  0
    6.7924    1.4444    0.0000 C   0  0  0  0  0  0  0  0  0  0  0  0
    6.2355    2.0530    0.0000 N   0  0  0  0  0  0  0  0  0  0  0  0
    7.6123    1.5372    0.0000 N   0  0  0  0  0  0  0  0  0  0  0  0
    7.9418    2.2934    0.0000 O   0  0  0  0  0  0  0  0  0  0  0  0
    8.1025    0.8736    0.0000 O   0  0  0  0  0  0  0  0  0  0  0  0
    6.3991    2.8615    0.0000 C   0  0  0  0  0  0  0  0  0  0  0  0
  4  5  2  0
 19 20  2  0
  9 10  1  0
 20 21  1  0
 21 22  2  0
 10 11  2  0
 22 23  1  0
 11 13  1  0
 23 24  2  0
 12  8  1  0
 24 25  1  0
 12 13  2  0
 25 26  2  0
 26 21  1  0
  5  6  1  0
 16 27  1  0
  6  9  2  0
 27 28  1  0
  2  1  1  0
 24 29  1  0
  8  7  2  0
 10 30  1  0
 29  2  1  0
  7  4  1  0
  2 31  1  0
 13 14  1  0
 31 32  1  0
 32 33  2  0
 14 15  1  0
 15 16  1  0
 16 12  1  0
  3  2  1  0
 33 34  1  0
 34 35  2  0
 35 36  1  0
 36 32  1  0
 14 17  1  0
 17 18  2  0
 37 38  2  0
 37 39  1  0
 35 37  1  0
  8  9  1  0
 36 40  1  0
 17 19  1  0
M  CHG  3   2   1  37   1  39  -1
M  END

> <chembl_id>
CHEMBL1963105

> <chembl_pref_name>
None

$$$$

     RDKit          2D

 35 37  0  0  0  0  0  0  0  0999 V2000
    8.1742   -0.1809    0.0000 Cl  0  0  0  0  0  0  0  0  0  0  0  0
    4.0971   -5.6353    0.0000 C   0  0  0  0  0  0  0  0  0  0  0  0
    4.8054   -4.6666    0.0000 C   0  0  0  0  0  0  0  0  0  0  0  0
    4.2010   -3.2956    0.0000 N   0  0  0  0  0  0  0  0  0  0  0  0
    4.9531   -1.9978    0.0000 C   0  0  0  0  0  0  0  0  0  0  0  0
    3.9511   -0.8815    0.0000 C   0  0  0  0  0  0  0  0  0  0  0  0
    2.5987   -1.5004    0.0000 C   0  0  0  0  0  0  0  0  0  0  0  0
    2.7343   -2.9815    0.0000 C   0  0  0  0  0  0  0  0  0  0  0  0
    1.2990   -0.7500    0.0000 C   0  0  0  0  0  0  0  0  0  0  0  0
    1.2990    0.7500    0.0000 C   0  0  0  0  0  0  0  0  0  0  0  0
    0.0000    1.5000    0.0000 C   0  0  0  0  0  0  0  0  0  0  0  0
   -1.2990    0.7500    0.0000 C   0  0  0  0  0  0  0  0  0  0  0  0
   -2.3383    1.3500    0.0000 F   0  0  0  0  0  0  0  0  0  0  0  0
   -1.2990   -0.7500    0.0000 C   0  0  0  0  0  0  0  0  0  0  0  0
    0.0000   -1.5000    0.0000 C   0  0  0  0  0  0  0  0  0  0  0  0
    0.0000   -2.7000    0.0000 F   0  0  0  0  0  0  0  0  0  0  0  0
    4.2506    0.5865    0.0000 C   0  0  0  0  0  0  0  0  0  0  0  0
    3.3521    1.3819    0.0000 O   0  0  0  0  0  0  0  0  0  0  0  0
    5.6739    1.0627    0.0000 N   0  0  0  0  0  0  0  0  0  0  0  0
    5.9760    2.5320    0.0000 C   0  0  0  0  0  0  0  0  0  0  0  0
    7.3994    3.0051    0.0000 C   0  0  0  0  0  0  0  0  0  0  0  0
    7.6410    4.1806    0.0000 C   0  0  0  0  0  0  0  0  0  0  0  0
    8.5208    2.0090    0.0000 C   0  0  0  0  0  0  0  0  0  0  0  0
    8.7346    3.1898    0.0000 O   0  0  0  0  0  0  0  0  0  0  0  0
    8.2189    0.5397    0.0000 C   0  0  0  0  0  0  0  0  0  0  0  0
    9.1161   -0.2572    0.0000 C   0  0  0  0  0  0  0  0  0  0  0  0
    6.7955    0.0666    0.0000 C   0  0  0  0  0  0  0  0  0  0  0  0
    9.8842    1.4314    0.0000 C   0  0  0  0  0  0  0  0  0  0  0  0
   10.0680   -0.0573    0.0000 C   0  0  0  0  0  0  0  0  0  0  0  0
   11.4492   -0.6424    0.0000 C   0  0  0  0  0  0  0  0  0  0  0  0
   12.6465    0.2612    0.0000 C   0  0  0  0  0  0  0  0  0  0  0  0
   13.7515   -0.2069    0.0000 F   0  0  0  0  0  0  0  0  0  0  0  0
   12.4627    1.7499    0.0000 C   0  0  0  0  0  0  0  0  0  0  0  0
   13.4205    2.4728    0.0000 F   0  0  0  0  0  0  0  0  0  0  0  0
   11.0815    2.3350    0.0000 C   0  0  0  0  0  0  0  0  0  0  0  0
  2  3  1  0
  3  4  1  0
  4  5  1  0
  5  6  1  0
  6  7  1  0
  7  8  1  0
  8  4  1  0
  7  9  1  1
  9 10  2  0
 10 11  1  0
 11 12  2  0
 12 13  1  0
 12 14  1  0
 14 15  2  0
 15  9  1  0
 15 16  1  0
  6 17  1  6
 17 18  2  0
 17 19  1  0
 19 20  1  0
 20 21  1  0
 21 22  1  1
 21 23  1  0
 23 24  1  1
 23 25  1  0
 25 26  1  1
 25 27  1  0
 27 19  1  0
 23 28  1  0
 28 29  2  0
 29 30  1  0
 30 31  2  0
 31 32  1  0
 31 33  1  0
 33 34  1  0
 33 35  2  0
 35 28  1  0
M  END

> <chembl_id>
CHEMBL1204069

> <chembl_pref_name>
None

$$$$

     RDKit          2D

 24 24  0  0  0  0  0  0  0  0999 V2000
   -0.4782   -4.1282    0.0000 O   0  0  0  0  0  0  0  0  0  0  0  0
   -0.4782    2.4718    0.0000 O   0  0  0  0  0  0  0  0  0  0  0  0
    1.6652   -6.1907    0.0000 O   0  0  0  0  0  0  0  0  0  0  0  0
   -3.3361    3.2968    0.0000 O   0  0  0  0  0  0  0  0  0  0  0  0
    2.3797   -4.9532    0.0000 O   0  0  0  0  0  0  0  0  0  0  0  0
   -2.6216    4.5343    0.0000 O   0  0  0  0  0  0  0  0  0  0  0  0
    0.2363   -2.8907    0.0000 N   0  0  0  0  0  0  0  0  0  0  0  0
   -1.1926    1.2343    0.0000 N   0  0  0  0  0  0  0  0  0  0  0  0
   -0.4782   -1.6532    0.0000 C   0  0  0  0  0  0  0  0  0  0  0  0
   -0.4782   -0.0032    0.0000 C   0  0  0  0  0  0  0  0  0  0  0  0
   -1.1926   -1.2407    0.0000 C   0  0  0  0  0  0  0  0  0  0  0  0
    0.2363   -1.2407    0.0000 C   0  0  0  0  0  0  0  0  0  0  0  0
   -1.1926   -0.4157    0.0000 C   0  0  0  0  0  0  0  0  0  0  0  0
    0.2363   -0.4157    0.0000 C   0  0  0  0  0  0  0  0  0  0  0  0
   -0.4782   -2.4782    0.0000 C   0  0  0  0  0  0  0  0  0  0  0  0
   -0.4782    0.8218    0.0000 C   0  0  0  0  0  0  0  0  0  0  0  0
    0.2363   -3.7157    0.0000 C   0  0  0  0  0  0  0  0  0  0  0  0
   -1.1926    2.0593    0.0000 C   0  0  0  0  0  0  0  0  0  0  0  0
    0.9508   -4.1282    0.0000 C   0  0  0  0  0  0  0  0  0  0  0  0
   -1.9071    2.4718    0.0000 C   0  0  0  0  0  0  0  0  0  0  0  0
    0.9508   -4.9532    0.0000 C   0  0  0  0  0  0  0  0  0  0  0  0
   -1.9071    3.2968    0.0000 C   0  0  0  0  0  0  0  0  0  0  0  0
    1.6652   -5.3657    0.0000 C   0  0  0  0  0  0  0  0  0  0  0  0
   -2.6216    3.7093    0.0000 C   0  0  0  0  0  0  0  0  0  0  0  0
  1 17  2  0
  2 18  2  0
  3 23  2  0
  4 24  2  0
  5 23  1  0
  6 24  1  0
  7 15  1  0
  7 17  1  0
  8 16  1  0
  8 18  1  0
  9 11  1  0
  9 12  1  0
  9 15  1  0
 10 13  1  0
 10 14  1  0
 10 16  1  0
 11 13  1  0
 12 14  1  0
 17 19  1  0
 18 20  1  0
 19 21  2  0
 20 22  2  0
 21 23  1  0
 22 24  1  0
M  END

> <chembl_id>
CHEMBL1348343

> <chembl_pref_name>
None

$$$$

     RDKit          2D

 57 62  0  0  0  0  0  0  0  0999 V2000
    4.7583   -8.2415    0.0000 C   0  0  0  0  0  0  0  0  0  0  0  0
    5.4730   -8.6536    0.0000 O   0  0  0  0  0  0  0  0  0  0  0  0
    6.1872   -8.2407    0.0000 C   0  0  0  0  0  0  0  0  0  0  0  0
    6.8981   -8.6538    0.0000 C   0  0  0  0  0  0  0  0  0  0  0  0
    6.8921   -7.0037    0.0000 C   0  0  0  0  0  0  0  0  0  0  0  0
    6.1813   -7.4183    0.0000 C   0  0  0  0  0  0  0  0  0  0  0  0
    8.2692   -6.8839    0.0000 C   0  0  0  0  0  0  0  0  0  0  0  0
    9.1497   -8.6006    0.0000 C   0  0  0  0  0  0  0  0  0  0  0  0
    8.3145   -8.7947    0.0000 N   0  0  0  0  0  0  0  0  0  0  0  0
    7.6128   -8.2395    0.0000 C   0  0  0  0  0  0  0  0  0  0  0  0
    7.6118   -7.4157    0.0000 C   0  0  0  0  0  0  0  0  0  0  0  0
    5.4645   -7.0099    0.0000 O   0  0  0  0  0  0  0  0  0  0  0  0
    5.4597   -6.1850    0.0000 C   0  0  0  0  0  0  0  0  0  0  0  0
    8.0623   -6.0853    0.0000 O   0  0  0  0  0  0  0  0  0  0  0  0
    9.0969   -7.0288    0.0000 N   0  0  0  0  0  0  0  0  0  0  0  0
    9.5070   -7.8112    0.0000 C   0  0  0  0  0  0  0  0  0  0  0  0
   10.3779   -7.6631    0.0000 C   0  0  0  0  0  0  0  0  0  0  0  0
   10.5061   -6.7890    0.0000 C   0  0  0  0  0  0  0  0  0  0  0  0
    9.7144   -6.3971    0.0000 C   0  0  0  0  0  0  0  0  0  0  0  0
    9.9123   -8.5201    0.0000 H   0  0  0  0  0  0  0  0  0  0  0  0
   -6.6736   -9.8916    0.0000 C   0  0  0  0  0  0  0  0  0  0  0  0
   -6.6724  -10.7190    0.0000 C   0  0  0  0  0  0  0  0  0  0  0  0
   -5.9544  -11.1319    0.0000 C   0  0  0  0  0  0  0  0  0  0  0  0
   -5.2380  -10.7185    0.0000 C   0  0  0  0  0  0  0  0  0  0  0  0
   -5.2409   -9.8880    0.0000 C   0  0  0  0  0  0  0  0  0  0  0  0
   -5.9562   -9.4789    0.0000 C   0  0  0  0  0  0  0  0  0  0  0  0
   -7.3909  -11.1309    0.0000 O   0  0  0  0  0  0  0  0  0  0  0  0
   -8.1018  -10.7179    0.0000 C   0  0  0  0  0  0  0  0  0  0  0  0
   -5.9546  -11.9569    0.0000 O   0  0  0  0  0  0  0  0  0  0  0  0
   -6.6725  -12.3692    0.0000 C   0  0  0  0  0  0  0  0  0  0  0  0
   -4.5229  -11.1299    0.0000 O   0  0  0  0  0  0  0  0  0  0  0  0
   -4.5216  -11.9549    0.0000 C   0  0  0  0  0  0  0  0  0  0  0  0
   -5.9587   -8.6539    0.0000 C   0  0  0  0  0  0  0  0  0  0  0  0
   -5.2455   -8.2392    0.0000 N   0  0  0  0  0  0  0  0  0  0  0  0
   -6.6756   -8.2435    0.0000 O   0  0  0  0  0  0  0  0  0  0  0  0
   -4.5255   -8.6495    0.0000 C   0  0  0  0  0  0  0  0  0  0  0  0
   -3.8144   -8.2384    0.0000 C   0  0  0  0  0  0  0  0  0  0  0  0
   -3.8126   -7.4130    0.0000 N   0  0  0  0  0  0  0  0  0  0  0  0
   -4.5282   -7.0005    0.0000 C   0  0  0  0  0  0  0  0  0  0  0  0
   -5.2455   -7.4133    0.0000 C   0  0  0  0  0  0  0  0  0  0  0  0
   -3.0978   -7.0011    0.0000 C   0  0  0  0  0  0  0  0  0  0  0  0
   -2.3837   -7.4142    0.0000 C   0  0  0  0  0  0  0  0  0  0  0  0
   -3.0972   -6.1761    0.0000 O   0  0  0  0  0  0  0  0  0  0  0  0
   -1.6689   -7.0023    0.0000 C   0  0  0  0  0  0  0  0  0  0  0  0
   -0.9547   -7.4153    0.0000 C   0  0  0  0  0  0  0  0  0  0  0  0
   -0.9576   -8.2427    0.0000 C   0  0  0  0  0  0  0  0  0  0  0  0
   -0.2443   -8.6557    0.0000 C   0  0  0  0  0  0  0  0  0  0  0  0
    0.4715   -8.2437    0.0000 C   0  0  0  0  0  0  0  0  0  0  0  0
    0.4695   -7.4145    0.0000 C   0  0  0  0  0  0  0  0  0  0  0  0
   -0.2444   -7.0052    0.0000 C   0  0  0  0  0  0  0  0  0  0  0  0
    1.1862   -8.6559    0.0000 O   0  0  0  0  0  0  0  0  0  0  0  0
    1.1828   -7.0000    0.0000 O   0  0  0  0  0  0  0  0  0  0  0  0
    1.8984   -7.4106    0.0000 C   0  0  0  0  0  0  0  0  0  0  0  0
    1.9004   -8.2430    0.0000 C   0  0  0  0  0  0  0  0  0  0  0  0
    2.6151   -8.6551    0.0000 C   0  0  0  0  0  0  0  0  0  0  0  0
    3.3294   -8.2422    0.0000 C   0  0  0  0  0  0  0  0  0  0  0  0
    4.0441   -8.6543    0.0000 C   0  0  0  0  0  0  0  0  0  0  0  0
  5  6  2  0
 27 28  1  0
 12 13  1  0
 23 29  1  0
  6  3  1  0
 29 30  1  0
  7 14  2  0
 24 31  1  0
 15 16  1  0
 31 32  1  0
  1  2  1  0
 26 33  1  0
  3  4  2  0
 33 34  1  0
  4 10  1  0
 33 35  2  0
 34 36  1  0
 11  5  1  0
 16 17  1  0
 17 18  1  0
 18 19  1  0
 34 40  1  0
 36 37  1  0
 37 38  1  0
 38 39  1  0
 39 40  1  0
 19 15  1  0
 38 41  1  0
 15  7  1  0
 41 42  1  0
 16 20  1  6
 41 43  2  0
 16  8  1  0
 42 44  2  0
  9 10  1  0
 44 45  1  0
 21 22  2  0
 45 46  2  0
 10 11  2  0
 46 47  1  0
 22 23  1  0
 47 48  2  0
 11  7  1  0
 48 49  1  0
 23 24  2  0
 49 50  2  0
 50 45  1  0
  8  9  2  0
 48 51  1  0
 24 25  1  0
 49 52  1  0
  2  3  1  0
 52 53  1  0
 25 26  2  0
 51 54  1  0
 26 21  1  0
 54 55  1  0
  6 12  1  0
 55 56  1  0
 22 27  1  0
 56 57  1  0
 57  1  1  0
M  END

> <chembl_id>
CHEMBL1240649

> <chembl_pref_name>
None

$$$$

     RDKit          2D

 34 39  0  0  0  0  0  0  0  0999 V2000
   -0.6370   -0.1564    0.0000 S   0  0  0  0  0  0  0  0  0  0  0  0
    0.6729   -0.8239    0.0000 S   0  0  0  0  0  0  0  0  0  0  0  0
   -3.5491   -0.0003    0.0000 O   0  0  0  0  0  0  0  0  0  0  0  0
   -5.4614    2.1235    0.0000 O   0  0  0  0  0  0  0  0  0  0  0  0
   -2.2870    1.2725    0.0000 N   0  0  0  0  0  0  0  0  0  0  0  0
   -2.5646    2.5782    0.0000 N   0  0  0  0  0  0  0  0  0  0  0  0
   -4.0637    2.4206    0.0000 N   0  0  0  0  0  0  0  0  0  0  0  0
   -1.1445    2.1977    0.0000 N   0  0  0  0  0  0  0  0  0  0  0  0
   -4.5052    1.0616    0.0000 N   0  0  0  0  0  0  0  0  0  0  0  0
    0.6729    0.5110    0.0000 N   0  0  0  0  0  0  0  0  0  0  0  0
   -3.1075    1.3587    0.0000 C   0  0  0  0  0  0  0  0  0  0  0  0
   -3.2790    2.1657    0.0000 C   0  0  0  0  0  0  0  0  0  0  0  0
   -1.9515    2.0262    0.0000 C   0  0  0  0  0  0  0  0  0  0  0  0
   -3.7206    0.8067    0.0000 C   0  0  0  0  0  0  0  0  0  0  0  0
   -4.6767    1.8686    0.0000 C   0  0  0  0  0  0  0  0  0  0  0  0
   -1.8745    0.5580    0.0000 C   0  0  0  0  0  0  0  0  0  0  0  0
   -0.5925    1.5846    0.0000 C   0  0  0  0  0  0  0  0  0  0  0  0
   -0.8896    2.9823    0.0000 C   0  0  0  0  0  0  0  0  0  0  0  0
    0.2145    1.7561    0.0000 C   0  0  0  0  0  0  0  0  0  0  0  0
    0.4694    2.5407    0.0000 C   0  0  0  0  0  0  0  0  0  0  0  0
   -4.2352    3.2276    0.0000 C   0  0  0  0  0  0  0  0  0  0  0  0
   -1.0495    0.5580    0.0000 C   0  0  0  0  0  0  0  0  0  0  0  0
   -0.0826    3.1538    0.0000 C   0  0  0  0  0  0  0  0  0  0  0  0
    0.1880   -0.1564    0.0000 C   0  0  0  0  0  0  0  0  0  0  0  0
    1.4575   -0.5689    0.0000 C   0  0  0  0  0  0  0  0  0  0  0  0
    1.4575    0.2561    0.0000 C   0  0  0  0  0  0  0  0  0  0  0  0
    0.7665    1.1430    0.0000 C   0  0  0  0  0  0  0  0  0  0  0  0
    1.2764    2.7123    0.0000 C   0  0  0  0  0  0  0  0  0  0  0  0
    2.1720   -0.9814    0.0000 C   0  0  0  0  0  0  0  0  0  0  0  0
    2.1720    0.6686    0.0000 C   0  0  0  0  0  0  0  0  0  0  0  0
    1.5735    1.3146    0.0000 C   0  0  0  0  0  0  0  0  0  0  0  0
    1.8285    2.0992    0.0000 C   0  0  0  0  0  0  0  0  0  0  0  0
    2.8865   -0.5689    0.0000 C   0  0  0  0  0  0  0  0  0  0  0  0
    2.8865    0.2561    0.0000 C   0  0  0  0  0  0  0  0  0  0  0  0
  1 22  1  0
  1 24  1  0
  2 24  1  0
  2 25  1  0
  3 14  2  0
  4 15  2  0
  5 11  1  0
  5 13  1  0
  5 16  1  0
  6 12  1  0
  6 13  2  0
  7 12  1  0
  7 15  1  0
  7 21  1  0
  8 13  1  0
  8 17  1  0
  8 18  1  0
  9 14  1  0
  9 15  1  0
 10 24  2  0
 10 26  1  0
 11 12  2  0
 11 14  1  0
 16 22  1  0
 17 19  1  0
 18 23  1  0
 19 20  1  0
 19 27  2  0
 20 23  1  0
 20 28  2  0
 25 26  1  0
 25 29  2  0
 26 30  2  0
 27 31  1  0
 28 32  1  0
 29 33  1  0
 30 34  1  0
 31 32  2  0
 33 34  2  0
M  END

> <chembl_id>
CHEMBL1346094

> <chembl_pref_name>
None

$$$$

     RDKit          2D

 30 33  0  0  0  0  0  0  0  0999 V2000
    2.5292  -11.3170    0.0000 C   0  0  0  0  0  0  0  0  0  0  0  0
    2.5280  -12.1435    0.0000 C   0  0  0  0  0  0  0  0  0  0  0  0
    3.2421  -12.5560    0.0000 N   0  0  0  0  0  0  0  0  0  0  0  0
    3.2403  -10.9047    0.0000 C   0  0  0  0  0  0  0  0  0  0  0  0
    3.9549  -11.3134    0.0000 C   0  0  0  0  0  0  0  0  0  0  0  0
    3.9552  -12.1435    0.0000 C   0  0  0  0  0  0  0  0  0  0  0  0
    4.7443  -11.0567    0.0000 C   0  0  0  0  0  0  0  0  0  0  0  0
    4.9988  -10.2728    0.0000 S   0  0  0  0  0  0  0  0  0  0  0  0
    5.8048  -10.1012    0.0000 C   0  0  0  0  0  0  0  0  0  0  0  0
    6.3507  -10.7152    0.0000 C   0  0  0  0  0  0  0  0  0  0  0  0
    7.1560  -10.5441    0.0000 C   0  0  0  0  0  0  0  0  0  0  0  0
    7.4112   -9.7596    0.0000 C   0  0  0  0  0  0  0  0  0  0  0  0
    6.8547   -9.1459    0.0000 C   0  0  0  0  0  0  0  0  0  0  0  0
    6.0513   -9.3201    0.0000 C   0  0  0  0  0  0  0  0  0  0  0  0
    3.2378  -10.0806    0.0000 S   0  0  0  0  0  0  0  0  0  0  0  0
    3.2298   -9.2526    0.0000 C   0  0  0  0  0  0  0  0  0  0  0  0
    4.0620  -10.0754    0.0000 O   0  0  0  0  0  0  0  0  0  0  0  0
    2.4137  -10.0897    0.0000 O   0  0  0  0  0  0  0  0  0  0  0  0
    5.2326  -11.7281    0.0000 C   0  0  0  0  0  0  0  0  0  0  0  0
    4.7389  -12.4004    0.0000 N   0  0  0  0  0  0  0  0  0  0  0  0
    5.0724  -13.1599    0.0000 C   0  0  0  0  0  0  0  0  0  0  0  0
    5.9007  -13.2535    0.0000 C   0  0  0  0  0  0  0  0  0  0  0  0
    6.3944  -12.5812    0.0000 C   0  0  0  0  0  0  0  0  0  0  0  0
    6.0598  -11.8153    0.0000 C   0  0  0  0  0  0  0  0  0  0  0  0
    6.5467  -11.1504    0.0000 C   0  0  0  0  0  0  0  0  0  0  0  0
    7.3660  -11.2395    0.0000 C   0  0  0  0  0  0  0  0  0  0  0  0
    7.7004  -11.9930    0.0000 O   0  0  0  0  0  0  0  0  0  0  0  0
    7.8548  -10.5740    0.0000 O   0  0  0  0  0  0  0  0  0  0  0  0
    5.4961   -8.7112    0.0000 Cl  0  0  0  0  0  0  0  0  0  0  0  0
    8.2170   -9.5868    0.0000 F   0  0  0  0  0  0  0  0  0  0  0  0
 13 14  2  0
 14  9  1  0
  6 20  1  0
  4 15  1  0
 19  7  2  0
 15 16  1  0
  7  5  1  0
 15 17  2  0
  1  2  2  0
 15 18  2  0
 19 20  1  0
  7  8  1  0
  5  4  2  0
  8  9  1  0
  4  1  1  0
  9 10  2  0
  5  6  1  0
 19 24  1  0
 20 21  1  0
 21 22  1  0
 22 23  1  0
 23 24  1  0
 10 11  1  0
 24 25  1  0
 25 26  1  0
 11 12  2  0
  2  3  1  0
 26 27  1  0
 26 28  2  0
 12 13  1  0
 14 29  1  0
  3  6  2  0
 12 30  1  0
M  END

> <chembl_id>
CHEMBL484130

> <chembl_pref_name>
None

$$$$

     RDKit          2D

 29 31  0  0  0  0  0  0  0  0999 V2000
    3.9655   -3.9540    0.0000 S   0  0  0  0  0  0  0  0  0  0  0  0
   -0.4105   -1.3169    0.0000 S   0  0  0  0  0  0  0  0  0  0  0  0
   -0.5161   -3.5226    0.0000 O   0  0  0  0  0  0  0  0  0  0  0  0
    5.3945   -4.7790    0.0000 O   0  0  0  0  0  0  0  0  0  0  0  0
    2.4974   -3.8770    0.0000 N   0  0  0  0  0  0  0  0  0  0  0  0
    2.3578   -2.5495    0.0000 N   0  0  0  0  0  0  0  0  0  0  0  0
    3.1648   -2.7210    0.0000 N   0  0  0  0  0  0  0  0  0  0  0  0
    0.6399   -2.6827    0.0000 N   0  0  0  0  0  0  0  0  0  0  0  0
    6.1089   -3.5415    0.0000 N   0  0  0  0  0  0  0  0  0  0  0  0
    1.9453   -3.2639    0.0000 C   0  0  0  0  0  0  0  0  0  0  0  0
    3.2511   -3.5415    0.0000 C   0  0  0  0  0  0  0  0  0  0  0  0
    1.1249   -3.3502    0.0000 C   0  0  0  0  0  0  0  0  0  0  0  0
    2.3259   -4.6840    0.0000 C   0  0  0  0  0  0  0  0  0  0  0  0
   -0.1805   -2.7690    0.0000 C   0  0  0  0  0  0  0  0  0  0  0  0
   -0.6655   -2.1015    0.0000 C   0  0  0  0  0  0  0  0  0  0  0  0
    0.7893   -4.1038    0.0000 C   0  0  0  0  0  0  0  0  0  0  0  0
    4.6800   -3.5415    0.0000 C   0  0  0  0  0  0  0  0  0  0  0  0
    2.9389   -5.2360    0.0000 C   0  0  0  0  0  0  0  0  0  0  0  0
    5.3945   -3.9540    0.0000 C   0  0  0  0  0  0  0  0  0  0  0  0
   -1.4905   -2.1015    0.0000 C   0  0  0  0  0  0  0  0  0  0  0  0
   -1.0780   -0.8320    0.0000 C   0  0  0  0  0  0  0  0  0  0  0  0
   -1.7454   -1.3169    0.0000 C   0  0  0  0  0  0  0  0  0  0  0  0
    6.8234   -3.9540    0.0000 C   0  0  0  0  0  0  0  0  0  0  0  0
    2.7674   -6.0430    0.0000 C   0  0  0  0  0  0  0  0  0  0  0  0
    7.5379   -3.5415    0.0000 C   0  0  0  0  0  0  0  0  0  0  0  0
    6.8234   -4.7790    0.0000 C   0  0  0  0  0  0  0  0  0  0  0  0
    8.2524   -3.9540    0.0000 C   0  0  0  0  0  0  0  0  0  0  0  0
    7.5379   -5.1915    0.0000 C   0  0  0  0  0  0  0  0  0  0  0  0
    8.2524   -4.7790    0.0000 C   0  0  0  0  0  0  0  0  0  0  0  0
  1 11  1  0
  1 17  1  0
  2 15  1  0
  2 21  1  0
  3 14  2  0
  4 19  2  0
  5 10  1  0
  5 11  1  0
  5 13  1  0
  6  7  1  0
  6 10  2  0
  7 11  2  0
  8 12  1  0
  8 14  1  0
  9 19  1  0
  9 23  1  0
 10 12  1  0
 12 16  1  0
 13 18  1  0
 14 15  1  0
 15 20  2  0
 17 19  1  0
 18 24  2  0
 20 22  1  0
 21 22  2  0
 23 25  1  0
 23 26  1  0
 25 27  1  0
 26 28  1  0
 27 29  1  0
 28 29  1  0
M  END

> <chembl_id>
CHEMBL1304094

> <chembl_pref_name>
None

$$$$

     RDKit          2D

 33 37  0  0  0  0  0  0  0  0999 V2000
   -2.5595   -5.9779    0.0000 C   0  0  0  0  0  0  0  0  0  0  0  0
   -1.7341   -5.9779    0.0000 C   0  0  0  0  0  0  0  0  0  0  0  0
   -1.3237   -5.2671    0.0000 N   0  0  0  0  0  0  0  0  0  0  0  0
   -1.7341   -4.5516    0.0000 C   0  0  0  0  0  0  0  0  0  0  0  0
   -2.5595   -4.5516    0.0000 C   0  0  0  0  0  0  0  0  0  0  0  0
   -2.9745   -5.2671    0.0000 N   0  0  0  0  0  0  0  0  0  0  0  0
   -3.7999   -5.2682    0.0000 C   0  0  0  0  0  0  0  0  0  0  0  0
   -4.2136   -4.5539    0.0000 C   0  0  0  0  0  0  0  0  0  0  0  0
   -4.2116   -5.9836    0.0000 C   0  0  0  0  0  0  0  0  0  0  0  0
   -3.7990   -3.8410    0.0000 C   0  0  0  0  0  0  0  0  0  0  0  0
   -4.2120   -3.1272    0.0000 C   0  0  0  0  0  0  0  0  0  0  0  0
   -5.0383   -3.1279    0.0000 C   0  0  0  0  0  0  0  0  0  0  0  0
   -5.4499   -3.8483    0.0000 C   0  0  0  0  0  0  0  0  0  0  0  0
   -5.0345   -4.5591    0.0000 C   0  0  0  0  0  0  0  0  0  0  0  0
   -5.0366   -5.9832    0.0000 C   0  0  0  0  0  0  0  0  0  0  0  0
   -5.4482   -6.6977    0.0000 C   0  0  0  0  0  0  0  0  0  0  0  0
   -5.0345   -7.4130    0.0000 C   0  0  0  0  0  0  0  0  0  0  0  0
   -4.2048   -7.4092    0.0000 C   0  0  0  0  0  0  0  0  0  0  0  0
   -3.7969   -6.6940    0.0000 C   0  0  0  0  0  0  0  0  0  0  0  0
   -0.4983   -5.2682    0.0000 C   0  0  0  0  0  0  0  0  0  0  0  0
   -0.0866   -5.9836    0.0000 C   0  0  0  0  0  0  0  0  0  0  0  0
    0.7388   -5.9847    0.0000 C   0  0  0  0  0  0  0  0  0  0  0  0
   -0.5003   -6.6978    0.0000 C   0  0  0  0  0  0  0  0  0  0  0  0
    1.1466   -6.7005    0.0000 C   0  0  0  0  0  0  0  0  0  0  0  0
    1.9712   -6.7020    0.0000 C   0  0  0  0  0  0  0  0  0  0  0  0
    2.3857   -5.9873    0.0000 C   0  0  0  0  0  0  0  0  0  0  0  0
    1.9696   -5.2696    0.0000 C   0  0  0  0  0  0  0  0  0  0  0  0
    1.1463   -5.2716    0.0000 C   0  0  0  0  0  0  0  0  0  0  0  0
   -1.3239   -6.6939    0.0000 C   0  0  0  0  0  0  0  0  0  0  0  0
   -1.7375   -7.4074    0.0000 C   0  0  0  0  0  0  0  0  0  0  0  0
   -1.3257   -8.1237    0.0000 C   0  0  0  0  0  0  0  0  0  0  0  0
   -0.4960   -8.1222    0.0000 C   0  0  0  0  0  0  0  0  0  0  0  0
   -0.0862   -7.4083    0.0000 C   0  0  0  0  0  0  0  0  0  0  0  0
 15 16  1  0
  7  8  1  0
 16 17  2  0
  1  6  1  0
 17 18  1  0
  7  9  1  0
 18 19  2  0
 19  9  1  0
  2  3  1  0
  3 20  1  0
  8 10  2  0
 20 21  1  0
  3  4  1  0
 21 22  1  0
 10 11  1  0
 21 23  1  0
  4  5  1  0
 22 24  2  0
 11 12  2  0
 24 25  1  0
  5  6  1  0
 25 26  2  0
 12 13  1  0
 26 27  1  0
 27 28  2  0
 28 22  1  0
 13 14  2  0
 23 29  2  0
 14  8  1  0
 29 30  1  0
  6  7  1  0
 30 31  2  0
  9 15  2  0
 31 32  1  0
  1  2  1  0
 32 33  2  0
 33 23  1  0
M  END

> <chembl_id>
CHEMBL1080654

> <chembl_pref_name>
None

$$$$

     RDKit          2D

 40 39  0  0  0  0  0  0  0  0999 V2000
    9.8199  -24.3975    0.0000 C   0  0  0  0  0  0  0  0  0  0  0  0
    9.1080  -24.8029    0.0000 C   0  0  0  0  0  0  0  0  0  0  0  0
    9.8235  -23.5792    0.0000 O   0  0  0  0  0  0  0  0  0  0  0  0
   10.5262  -24.8110    0.0000 O   0  0  0  0  0  0  0  0  0  0  0  0
    8.3867  -24.4186    0.0000 F   0  0  0  0  0  0  0  0  0  0  0  0
    8.4003  -25.2074    0.0000 F   0  0  0  0  0  0  0  0  0  0  0  0
    9.1105  -25.6210    0.0000 F   0  0  0  0  0  0  0  0  0  0  0  0
    2.4787  -23.6019    0.0000 C   0  0  0  0  0  0  0  0  0  0  0  0
    2.4758  -22.7713    0.0000 C   0  0  0  0  0  0  0  0  0  0  0  0
    3.1887  -22.3561    0.0000 C   0  0  0  0  0  0  0  0  0  0  0  0
    3.1856  -21.5311    0.0000 N   0  0  0  0  0  0  0  0  0  0  0  0
    3.8985  -21.1159    0.0000 C   0  0  0  0  0  0  0  0  0  0  0  0
    4.6146  -21.5257    0.0000 N   0  0  0  0  0  0  0  0  0  0  0  0
    4.6176  -22.3507    0.0000 C   0  0  0  0  0  0  0  0  0  0  0  0
    5.3337  -22.7605    0.0000 N   0  0  0  0  0  0  0  0  0  0  0  0
    5.3368  -23.5855    0.0000 C   0  0  0  0  0  0  0  0  0  0  0  0
    3.1938  -24.0131    0.0000 O   0  0  0  0  0  0  0  0  0  0  0  0
    4.6239  -24.0007    0.0000 C   0  0  0  0  0  0  0  0  0  0  0  0
    4.6270  -24.8257    0.0000 C   0  0  0  0  0  0  0  0  0  0  0  0
    3.1950  -24.8382    0.0000 C   0  0  0  0  0  0  0  0  0  0  0  0
    3.8954  -20.2909    0.0000 N   0  0  0  0  0  0  0  0  0  0  0  0
    3.9048  -22.7659    0.0000 O   0  0  0  0  0  0  0  0  0  0  0  0
    6.0466  -22.3454    0.0000 C   0  0  0  0  0  0  0  0  0  0  0  0
    6.7626  -22.7551    0.0000 C   0  0  0  0  0  0  0  0  0  0  0  0
    7.4755  -22.3399    0.0000 C   0  0  0  0  0  0  0  0  0  0  0  0
    8.1915  -22.7498    0.0000 C   0  0  0  0  0  0  0  0  0  0  0  0
    8.9045  -22.3346    0.0000 C   0  0  0  0  0  0  0  0  0  0  0  0
    9.6204  -22.7443    0.0000 C   0  0  0  0  0  0  0  0  0  0  0  0
   10.3334  -22.3292    0.0000 C   0  0  0  0  0  0  0  0  0  0  0  0
   11.0494  -22.7390    0.0000 C   0  0  0  0  0  0  0  0  0  0  0  0
   11.7623  -22.3238    0.0000 N   0  0  0  0  0  0  0  0  0  0  0  0
   12.4783  -22.7336    0.0000 C   0  0  0  0  0  0  0  0  0  0  0  0
   13.1912  -22.3184    0.0000 N   0  0  0  0  0  0  0  0  0  0  0  0
   12.4814  -23.5585    0.0000 N   0  0  0  0  0  0  0  0  0  0  0  0
   13.9072  -22.7282    0.0000 C   0  0  0  0  0  0  0  0  0  0  0  0
   14.6202  -22.3131    0.0000 C   0  0  0  0  0  0  0  0  0  0  0  0
   15.3361  -22.7228    0.0000 C   0  0  0  0  0  0  0  0  0  0  0  0
   16.0491  -22.3076    0.0000 C   0  0  0  0  0  0  0  0  0  0  0  0
    3.9140  -25.2409    0.0000 C   0  0  0  0  0  0  0  0  0  0  0  0
    1.7652  -24.0161    0.0000 O   0  0  0  0  0  0  0  0  0  0  0  0
  1  2  1  0
  1  3  2  0
  1  4  1  0
  2  5  1  0
  2  6  1  0
  2  7  1  0
  8  9  1  0
  9 10  1  0
 10 11  1  0
 11 12  1  0
 12 13  1  0
 13 14  1  0
 14 15  1  0
 15 16  1  0
  8 17  1  0
 16 18  1  0
 18 19  1  0
 17 20  1  0
 12 21  2  0
 14 22  2  0
 15 23  1  0
 23 24  1  0
 24 25  1  0
 25 26  1  0
 26 27  1  0
 27 28  1  0
 28 29  1  0
 29 30  1  0
 30 31  1  0
 31 32  1  0
 32 33  1  0
 32 34  2  0
 33 35  1  0
 35 36  1  0
 36 37  2  0
 37 38  1  0
 20 39  1  0
 19 39  1  0
  8 40  2  0
M  END

> <chembl_id>
CHEMBL2431239

> <chembl_pref_name>
None

$$$$

     RDKit          2D

 40 45  0  0  0  0  0  0  0  0999 V2000
    8.0598  -17.8897    0.0000 C   0  0  0  0  0  0  0  0  0  0  0  0
    7.8028  -18.6733    0.0000 C   0  0  0  0  0  0  0  0  0  0  0  0
    6.9769  -18.6664    0.0000 N   0  0  0  0  0  0  0  0  0  0  0  0
    6.7295  -17.8782    0.0000 C   0  0  0  0  0  0  0  0  0  0  0  0
    7.4034  -17.4006    0.0000 S   0  0  0  0  0  0  0  0  0  0  0  0
    6.0164  -16.6402    0.0000 N   0  0  0  0  0  0  0  0  0  0  0  0
    6.7328  -16.2269    0.0000 C   0  0  0  0  0  0  0  0  0  0  0  0
    6.7300  -15.3963    0.0000 C   0  0  0  0  0  0  0  0  0  0  0  0
    6.0146  -14.9872    0.0000 C   0  0  0  0  0  0  0  0  0  0  0  0
    5.3016  -16.2273    0.0000 C   0  0  0  0  0  0  0  0  0  0  0  0
    5.3012  -15.3999    0.0000 C   0  0  0  0  0  0  0  0  0  0  0  0
    3.8714  -15.4006    0.0000 C   0  0  0  0  0  0  0  0  0  0  0  0
    3.8718  -16.2280    0.0000 C   0  0  0  0  0  0  0  0  0  0  0  0
    4.5892  -16.6437    0.0000 C   0  0  0  0  0  0  0  0  0  0  0  0
    6.0125  -14.1622    0.0000 O   0  0  0  0  0  0  0  0  0  0  0  0
    4.3708  -15.8417    0.0000 C   0  0  0  0  0  0  0  0  0  0  0  0
    4.5833  -15.0417    0.0000 C   0  0  0  0  0  0  0  0  0  0  0  0
    7.4480  -16.6382    0.0000 O   0  0  0  0  0  0  0  0  0  0  0  0
    7.4429  -14.9811    0.0000 C   0  0  0  0  0  0  0  0  0  0  0  0
    8.1602  -15.3955    0.0000 N   0  0  0  0  0  0  0  0  0  0  0  0
    8.1562  -13.7465    0.0000 S   0  0  0  0  0  0  0  0  0  0  0  0
    7.4392  -14.1598    0.0000 N   0  0  0  0  0  0  0  0  0  0  0  0
    7.7375  -13.0292    0.0000 O   0  0  0  0  0  0  0  0  0  0  0  0
    8.5625  -13.0292    0.0000 O   0  0  0  0  0  0  0  0  0  0  0  0
    8.8721  -14.1585    0.0000 C   0  0  0  0  0  0  0  0  0  0  0  0
    8.8683  -14.9815    0.0000 C   0  0  0  0  0  0  0  0  0  0  0  0
    9.5780  -15.3945    0.0000 C   0  0  0  0  0  0  0  0  0  0  0  0
   10.2920  -14.9857    0.0000 C   0  0  0  0  0  0  0  0  0  0  0  0
   10.2919  -14.1595    0.0000 C   0  0  0  0  0  0  0  0  0  0  0  0
    9.5816  -13.7502    0.0000 C   0  0  0  0  0  0  0  0  0  0  0  0
   11.0062  -13.7467    0.0000 N   0  0  0  0  0  0  0  0  0  0  0  0
   11.7208  -14.1588    0.0000 S   0  0  0  0  0  0  0  0  0  0  0  0
   12.4351  -13.7460    0.0000 C   0  0  0  0  0  0  0  0  0  0  0  0
   11.3000  -14.8708    0.0000 O   0  0  0  0  0  0  0  0  0  0  0  0
   12.1250  -14.8708    0.0000 O   0  0  0  0  0  0  0  0  0  0  0  0
    6.0162  -17.4652    0.0000 C   0  0  0  0  0  0  0  0  0  0  0  0
    5.2958  -14.5708    0.0000 H   0  0  0  0  0  0  0  0  0  0  0  0
    5.2958  -17.0500    0.0000 H   0  0  0  0  0  0  0  0  0  0  0  0
    4.5792  -14.2167    0.0000 H   0  0  0  0  0  0  0  0  0  0  0  0
    4.5833  -17.4667    0.0000 H   0  0  0  0  0  0  0  0  0  0  0  0
  8 19  1  0
 19 20  1  0
  9 11  1  0
 10 11  1  0
  4  5  1  0
 19 22  2  0
 20 26  1  0
 25 21  1  0
 21 22  1  0
  5  1  1  0
 21 23  2  0
 21 24  2  0
 10  6  1  0
  2  3  1  0
 25 26  2  0
 10 14  1  0
 26 27  1  0
 11 17  1  0
 27 28  2  0
 17 12  1  0
 28 29  1  0
 12 13  1  0
 29 30  2  0
 30 25  1  0
 13 14  1  0
 29 31  1  0
  6  7  1  0
 31 32  1  0
  9 15  1  0
 32 33  1  0
  1  2  2  0
 32 34  2  0
 14 16  1  0
 32 35  2  0
  7  8  1  0
  6 36  1  0
 17 16  1  0
 11 37  1  6
  3  4  2  0
 10 38  1  6
  7 18  2  0
 17 39  1  1
  8  9  2  0
 14 40  1  1
 36  4  1  0
M  END

> <chembl_id>
CHEMBL1080094

> <chembl_pref_name>
None

$$$$

     RDKit          2D

 27 29  0  0  0  0  0  0  0  0999 V2000
   -1.6244   -0.7691    0.0000 S   0  0  0  0  0  0  0  0  0  0  0  0
   -2.0369   -1.4836    0.0000 O   0  0  0  0  0  0  0  0  0  0  0  0
   -1.2119   -0.0547    0.0000 O   0  0  0  0  0  0  0  0  0  0  0  0
    1.2334    0.0559    0.0000 O   0  0  0  0  0  0  0  0  0  0  0  0
   -0.9100   -1.1816    0.0000 N   0  0  0  0  0  0  0  0  0  0  0  0
   -4.4823    0.8809    0.0000 N   0  0  0  0  0  0  0  0  0  0  0  0
   -5.2360    0.5453    0.0000 N   0  0  0  0  0  0  0  0  0  0  0  0
    1.9479   -1.1816    0.0000 N   0  0  0  0  0  0  0  0  0  0  0  0
   -5.7880    1.1584    0.0000 N   0  0  0  0  0  0  0  0  0  0  0  0
   -5.3755    1.8729    0.0000 N   0  0  0  0  0  0  0  0  0  0  0  0
   -2.3389   -0.3566    0.0000 C   0  0  0  0  0  0  0  0  0  0  0  0
   -0.1955   -0.7691    0.0000 C   0  0  0  0  0  0  0  0  0  0  0  0
   -3.7679    0.4684    0.0000 C   0  0  0  0  0  0  0  0  0  0  0  0
   -3.0534   -0.7691    0.0000 C   0  0  0  0  0  0  0  0  0  0  0  0
   -2.3389    0.4684    0.0000 C   0  0  0  0  0  0  0  0  0  0  0  0
    0.5190   -1.1816    0.0000 C   0  0  0  0  0  0  0  0  0  0  0  0
   -0.9100   -2.0066    0.0000 C   0  0  0  0  0  0  0  0  0  0  0  0
   -3.7679   -0.3566    0.0000 C   0  0  0  0  0  0  0  0  0  0  0  0
   -3.0534    0.8809    0.0000 C   0  0  0  0  0  0  0  0  0  0  0  0
    0.5190   -2.0066    0.0000 C   0  0  0  0  0  0  0  0  0  0  0  0
    1.2334   -0.7691    0.0000 C   0  0  0  0  0  0  0  0  0  0  0  0
   -0.1955   -2.4191    0.0000 C   0  0  0  0  0  0  0  0  0  0  0  0
   -4.5686    1.7014    0.0000 C   0  0  0  0  0  0  0  0  0  0  0  0
    2.6624   -0.7691    0.0000 C   0  0  0  0  0  0  0  0  0  0  0  0
    3.3768   -1.1816    0.0000 C   0  0  0  0  0  0  0  0  0  0  0  0
    4.0913   -0.7691    0.0000 C   0  0  0  0  0  0  0  0  0  0  0  0
    3.3768   -2.0066    0.0000 C   0  0  0  0  0  0  0  0  0  0  0  0
  1  2  2  0
  1  3  2  0
  1  5  1  0
  1 11  1  0
  4 21  2  0
  5 12  1  0
  5 17  1  0
  6  7  1  0
  6 13  1  0
  6 23  1  0
  7  9  2  0
  8 21  1  0
  8 24  1  0
  9 10  1  0
 10 23  2  0
 11 14  2  0
 11 15  1  0
 12 16  1  0
 13 18  2  0
 13 19  1  0
 14 18  1  0
 15 19  2  0
 16 20  1  0
 16 21  1  0
 17 22  1  0
 20 22  1  0
 24 25  1  0
 25 26  1  0
 25 27  1  0
M  END

> <chembl_id>
CHEMBL1406984

> <chembl_pref_name>
None

$$$$

     RDKit          2D

 37 41  0  0  0  0  0  0  0  0999 V2000
   22.0767  -10.9368    0.0000 C   0  0  0  0  0  0  0  0  0  0  0  0
   19.9332  -12.1722    0.0000 C   0  0  0  0  0  0  0  0  0  0  0  0
   22.8644  -10.6880    0.0000 C   0  0  0  0  0  0  0  0  0  0  0  0
   21.3595  -12.1722    0.0000 C   0  0  0  0  0  0  0  0  0  0  0  0
   22.0684  -11.7618    0.0000 C   0  0  0  0  0  0  0  0  0  0  0  0
   20.6339  -11.7618    0.0000 C   0  0  0  0  0  0  0  0  0  0  0  0
   19.9332  -12.9973    0.0000 C   0  0  0  0  0  0  0  0  0  0  0  0
   21.3595  -10.5222    0.0000 C   0  0  0  0  0  0  0  0  0  0  0  0
   20.6339  -10.9326    0.0000 C   0  0  0  0  0  0  0  0  0  0  0  0
   19.2160  -11.7618    0.0000 C   0  0  0  0  0  0  0  0  0  0  0  0
   19.2160  -13.4119    0.0000 C   0  0  0  0  0  0  0  0  0  0  0  0
   23.2707   -9.9749    0.0000 C   0  0  0  0  0  0  0  0  0  0  0  0
   23.3453  -11.3597    0.0000 C   0  0  0  0  0  0  0  0  0  0  0  0
   22.8520  -12.0229    0.0000 C   0  0  0  0  0  0  0  0  0  0  0  0
   21.3595  -12.9973    0.0000 C   0  0  0  0  0  0  0  0  0  0  0  0
   18.5071  -12.1722    0.0000 C   0  0  0  0  0  0  0  0  0  0  0  0
   18.5071  -12.9973    0.0000 C   0  0  0  0  0  0  0  0  0  0  0  0
   20.6464  -13.4119    0.0000 C   0  0  0  0  0  0  0  0  0  0  0  0
   24.0916   -9.9707    0.0000 O   0  0  0  0  0  0  0  0  0  0  0  0
   17.7940  -13.4119    0.0000 O   0  0  0  0  0  0  0  0  0  0  0  0
   23.6811  -10.6880    0.0000 O   0  0  0  0  0  0  0  0  0  0  0  0
   22.0684  -10.1117    0.0000 C   0  0  0  0  0  0  0  0  0  0  0  0
   19.9332  -10.5222    0.0000 O   0  0  0  0  0  0  0  0  0  0  0  0
   19.9208  -11.3555    0.0000 C   0  0  0  0  0  0  0  0  0  0  0  0
   22.8520   -9.2618    0.0000 C   0  0  0  0  0  0  0  0  0  0  0  0
   23.2582   -8.5488    0.0000 S   0  0  0  0  0  0  0  0  0  0  0  0
   22.0560  -12.5826    0.0000 H   0  0  0  0  0  0  0  0  0  0  0  0
   21.3511  -11.3555    0.0000 H   0  0  0  0  0  0  0  0  0  0  0  0
   20.6339  -12.5744    0.0000 H   0  0  0  0  0  0  0  0  0  0  0  0
   22.8437   -7.8402    0.0000 C   0  0  0  0  0  0  0  0  0  0  0  0
   23.2530   -7.1278    0.0000 C   0  0  0  0  0  0  0  0  0  0  0  0
   22.8391   -6.4198    0.0000 C   0  0  0  0  0  0  0  0  0  0  0  0
   22.0273   -7.8473    0.0000 N   0  0  0  0  0  0  0  0  0  0  0  0
   21.6112   -7.1422    0.0000 C   0  0  0  0  0  0  0  0  0  0  0  0
   22.0188   -6.4244    0.0000 C   0  0  0  0  0  0  0  0  0  0  0  0
   20.7903   -7.1509    0.0000 C   0  0  0  0  0  0  0  0  0  0  0  0
   24.1662  -11.3670    0.0000 C   0  0  0  0  0  0  0  0  0  0  0  0
  9  8  1  0
 10  2  1  0
 11  7  2  0
  3 12  1  1
 13  3  1  0
 14  5  1  0
 15  4  1  0
 16 10  2  0
 17 16  1  0
 18 15  1  0
 19 12  2  0
 20 17  2  0
 21  3  1  0
  1 22  1  1
  9 23  1  1
  2 24  1  1
 25 12  1  0
 26 25  1  0
  5 27  1  6
  4 28  1  1
  6 29  1  6
 14 13  1  0
  4  6  1  0
  7 18  1  0
 11 17  1  0
 26 30  1  0
  2  6  1  0
 30 31  2  0
  3  1  1  0
 31 32  1  0
 32 35  2  0
  4  5  1  0
 34 33  2  0
 33 30  1  0
  5  1  1  0
  6  9  1  0
 34 35  1  0
  7  2  1  0
 36 34  1  0
  8  1  1  0
 13 37  1  6
M  END

> <chembl_id>
CHEMBL1940694

> <chembl_pref_name>
None

$$$$

     RDKit          2D

 25 26  0  0  0  0  0  0  0  0999 V2000
    2.5630    3.7554    0.0000 Cl  0  0  0  0  0  0  0  0  0  0  0  0
    2.6360   -0.0246    0.0000 O   0  0  0  0  0  0  0  0  0  0  0  0
    8.5313   -0.4575    0.0000 O   0  0  0  0  0  0  0  0  0  0  0  0
    4.2053   -0.5344    0.0000 N   0  0  0  0  0  0  0  0  0  0  0  0
    4.8727   -1.6905    0.0000 N   0  0  0  0  0  0  0  0  0  0  0  0
    5.6734   -0.4575    0.0000 N   0  0  0  0  0  0  0  0  0  0  0  0
    3.6532   -1.1475    0.0000 C   0  0  0  0  0  0  0  0  0  0  0  0
    4.0657   -1.8620    0.0000 C   0  0  0  0  0  0  0  0  0  0  0  0
    4.9589   -0.8700    0.0000 C   0  0  0  0  0  0  0  0  0  0  0  0
    4.0337    0.2725    0.0000 C   0  0  0  0  0  0  0  0  0  0  0  0
    2.8282   -1.1475    0.0000 C   0  0  0  0  0  0  0  0  0  0  0  0
    3.2491    0.5275    0.0000 C   0  0  0  0  0  0  0  0  0  0  0  0
    3.6532   -2.5765    0.0000 C   0  0  0  0  0  0  0  0  0  0  0  0
    3.0776    1.3344    0.0000 C   0  0  0  0  0  0  0  0  0  0  0  0
    2.4157   -1.8620    0.0000 C   0  0  0  0  0  0  0  0  0  0  0  0
    2.8282   -2.5765    0.0000 C   0  0  0  0  0  0  0  0  0  0  0  0
    2.2930    1.5894    0.0000 C   0  0  0  0  0  0  0  0  0  0  0  0
    3.6907    1.8865    0.0000 C   0  0  0  0  0  0  0  0  0  0  0  0
    6.3879   -0.8700    0.0000 C   0  0  0  0  0  0  0  0  0  0  0  0
    2.7345    2.9484    0.0000 C   0  0  0  0  0  0  0  0  0  0  0  0
    2.1214    2.3964    0.0000 C   0  0  0  0  0  0  0  0  0  0  0  0
    3.5191    2.6935    0.0000 C   0  0  0  0  0  0  0  0  0  0  0  0
    7.1023   -0.4575    0.0000 C   0  0  0  0  0  0  0  0  0  0  0  0
    7.8168   -0.8700    0.0000 C   0  0  0  0  0  0  0  0  0  0  0  0
    0.0000    0.0000    0.0000 Br  0  0  0  0  0  0  0  0  0  0  0  0
  1 20  1  0
  2 12  2  0
  3 24  1  0
  4  7  1  0
  4  9  1  0
  4 10  1  0
  5  8  1  0
  5  9  2  0
  6  9  1  0
  6 19  1  0
  7  8  1  0
  7 11  2  0
  8 13  2  0
 10 12  1  0
 11 15  1  0
 12 14  1  0
 13 16  1  0
 14 17  2  0
 14 18  1  0
 15 16  2  0
 17 21  1  0
 18 22  2  0
 19 23  1  0
 20 21  2  0
 20 22  1  0
 23 24  1  0
M  END

> <chembl_id>
CHEMBL1731119

> <chembl_pref_name>
None

$$$$

     RDKit          2D

 23 23  0  0  0  0  0  0  0  0999 V2000
    6.3962    0.0000    0.0000 Cl  0  0  0  0  0  0  0  0  0  0  0  0
   -2.2733    2.1750    0.0000 Cl  0  0  0  0  0  0  0  0  0  0  0  0
   -2.2733   -1.1250    0.0000 O   0  0  0  0  0  0  0  0  0  0  0  0
    4.1569    0.9375    0.0000 O   0  0  0  0  0  0  0  0  0  0  0  0
    2.7280    0.1125    0.0000 N   0  0  0  0  0  0  0  0  0  0  0  0
   -0.1299    0.1125    0.0000 N   0  0  0  0  0  0  0  0  0  0  0  0
   -1.5588    0.1125    0.0000 C   0  0  0  0  0  0  0  0  0  0  0  0
   -2.2733   -0.3000    0.0000 C   0  0  0  0  0  0  0  0  0  0  0  0
   -1.5588    0.9375    0.0000 C   0  0  0  0  0  0  0  0  0  0  0  0
   -2.2733    1.3500    0.0000 C   0  0  0  0  0  0  0  0  0  0  0  0
   -2.9878    0.1125    0.0000 C   0  0  0  0  0  0  0  0  0  0  0  0
   -0.8444   -0.3000    0.0000 C   0  0  0  0  0  0  0  0  0  0  0  0
   -2.9878    0.9375    0.0000 C   0  0  0  0  0  0  0  0  0  0  0  0
   -1.5588   -1.5375    0.0000 C   0  0  0  0  0  0  0  0  0  0  0  0
    2.0135   -0.3000    0.0000 C   0  0  0  0  0  0  0  0  0  0  0  0
    3.4425   -0.3000    0.0000 C   0  0  0  0  0  0  0  0  0  0  0  0
    2.7280    0.9375    0.0000 C   0  0  0  0  0  0  0  0  0  0  0  0
    0.5846   -0.3000    0.0000 C   0  0  0  0  0  0  0  0  0  0  0  0
    1.2990    0.1125    0.0000 C   0  0  0  0  0  0  0  0  0  0  0  0
    4.1569    0.1125    0.0000 C   0  0  0  0  0  0  0  0  0  0  0  0
    3.4425    1.3500    0.0000 C   0  0  0  0  0  0  0  0  0  0  0  0
   -1.5588   -2.3625    0.0000 C   0  0  0  0  0  0  0  0  0  0  0  0
   -2.2733   -2.7750    0.0000 C   0  0  0  0  0  0  0  0  0  0  0  0
  2 10  1  0
  3  8  1  0
  3 14  1  0
  4 20  1  0
  4 21  1  0
  5 15  1  0
  5 16  1  0
  5 17  1  0
  6 12  1  0
  6 18  1  0
  7  8  1  0
  7  9  2  0
  7 12  1  0
  8 11  2  0
  9 10  1  0
 10 13  2  0
 11 13  1  0
 14 22  1  0
 15 19  1  0
 16 20  1  0
 17 21  1  0
 18 19  1  0
 22 23  2  0
M  END

> <chembl_id>
CHEMBL1712000

> <chembl_pref_name>
None

$$$$

     RDKit          2D

212217  0  0  0  0  0  0  0  0999 V2000
   -8.3564  -20.5998    0.0000 N   0  0  0  0  0  0  0  0  0  0  0  0
   -8.2067  -19.7879    0.0000 C   0  0  0  0  0  0  0  0  0  0  0  0
   -7.4283  -19.5134    0.0000 N   0  0  0  0  0  0  0  0  0  0  0  0
   -8.8313  -19.2504    0.0000 N   0  0  0  0  0  0  0  0  0  0  0  0
  -10.9953  -23.0471    0.0000 N   0  0  0  0  0  0  0  0  0  0  0  0
  -10.2168  -22.7685    0.0000 C   0  0  0  0  0  0  0  0  0  0  0  0
   -9.7418  -24.1180    0.0000 O   0  0  0  0  0  0  0  0  0  0  0  0
   -9.5881  -23.3060    0.0000 C   0  0  0  0  0  0  0  0  0  0  0  0
  -10.0629  -21.9565    0.0000 C   0  0  0  0  0  0  0  0  0  0  0  0
   -9.2887  -21.6821    0.0000 C   0  0  0  0  0  0  0  0  0  0  0  0
   -9.1348  -20.8743    0.0000 C   0  0  0  0  0  0  0  0  0  0  0  0
   -8.8096  -23.0315    0.0000 N   0  0  0  0  0  0  0  0  0  0  0  0
   -8.1850  -23.5691    0.0000 C   0  0  0  0  0  0  0  0  0  0  0  0
   -7.2569  -22.4827    0.0000 O   0  0  0  0  0  0  0  0  0  0  0  0
   -8.3346  -24.3768    0.0000 C   0  0  0  0  0  0  0  0  0  0  0  0
   -7.4065  -23.2946    0.0000 C   0  0  0  0  0  0  0  0  0  0  0  0
   -6.7778  -23.8279    0.0000 N   0  0  0  0  0  0  0  0  0  0  0  0
   -6.0035  -23.5535    0.0000 C   0  0  0  0  0  0  0  0  0  0  0  0
   -5.5224  -24.9029    0.0000 O   0  0  0  0  0  0  0  0  0  0  0  0
   -5.8469  -22.7457    0.0000 C   0  0  0  0  0  0  0  0  0  0  0  0
   -5.3721  -24.0909    0.0000 C   0  0  0  0  0  0  0  0  0  0  0  0
   -4.6080  -23.7692    0.0000 N   0  0  0  0  0  0  0  0  0  0  0  0
   -3.8870  -24.1365    0.0000 C   0  0  0  0  0  0  0  0  0  0  0  0
   -4.6036  -25.3732    0.0000 O   0  0  0  0  0  0  0  0  0  0  0  0
   -3.8870  -24.9605    0.0000 C   0  0  0  0  0  0  0  0  0  0  0  0
   -3.1513  -23.7563    0.0000 C   0  0  0  0  0  0  0  0  0  0  0  0
   -4.3380  -22.9113    0.0000 C   0  0  0  0  0  0  0  0  0  0  0  0
   -3.4442  -22.9015    0.0000 C   0  0  0  0  0  0  0  0  0  0  0  0
   -3.1781  -25.3729    0.0000 N   0  0  0  0  0  0  0  0  0  0  0  0
   -2.4656  -24.9602    0.0000 C   0  0  0  0  0  0  0  0  0  0  0  0
   -1.7469  -26.1943    0.0000 O   0  0  0  0  0  0  0  0  0  0  0  0
   -1.7469  -25.3717    0.0000 C   0  0  0  0  0  0  0  0  0  0  0  0
   -2.4656  -24.1338    0.0000 C   0  0  0  0  0  0  0  0  0  0  0  0
   -1.7517  -22.8963    0.0000 C   0  0  0  0  0  0  0  0  0  0  0  0
   -1.7464  -23.7225    0.0000 C   0  0  0  0  0  0  0  0  0  0  0  0
   -1.0359  -24.1305    0.0000 C   0  0  0  0  0  0  0  0  0  0  0  0
   -0.3211  -23.7173    0.0000 C   0  0  0  0  0  0  0  0  0  0  0  0
   -0.3233  -22.8929    0.0000 C   0  0  0  0  0  0  0  0  0  0  0  0
   -1.0411  -22.4831    0.0000 C   0  0  0  0  0  0  0  0  0  0  0  0
    0.3898  -22.4806    0.0000 O   0  0  0  0  0  0  0  0  0  0  0  0
   -1.0357  -24.9582    0.0000 N   0  0  0  0  0  0  0  0  0  0  0  0
   -0.3246  -25.3694    0.0000 C   0  0  0  0  0  0  0  0  0  0  0  0
    0.3988  -24.1283    0.0000 O   0  0  0  0  0  0  0  0  0  0  0  0
    0.3988  -24.9557    0.0000 C   0  0  0  0  0  0  0  0  0  0  0  0
    1.1058  -25.3667    0.0000 N   0  0  0  0  0  0  0  0  0  0  0  0
    1.8208  -24.9530    0.0000 C   0  0  0  0  0  0  0  0  0  0  0  0
    2.5404  -26.1903    0.0000 O   0  0  0  0  0  0  0  0  0  0  0  0
    2.5404  -25.3640    0.0000 C   0  0  0  0  0  0  0  0  0  0  0  0
    1.8208  -24.1298    0.0000 C   0  0  0  0  0  0  0  0  0  0  0  0
    2.5404  -23.7146    0.0000 C   0  0  0  0  0  0  0  0  0  0  0  0
    1.1059  -23.7160    0.0000 C   0  0  0  0  0  0  0  0  0  0  0  0
    5.3963  -27.8371    0.0000 N   0  0  0  0  0  0  0  0  0  0  0  0
    5.3963  -28.6590    0.0000 C   0  0  0  0  0  0  0  0  0  0  0  0
    4.6850  -29.0701    0.0000 N   0  0  0  0  0  0  0  0  0  0  0  0
    6.1112  -29.0728    0.0000 N   0  0  0  0  0  0  0  0  0  0  0  0
    3.2510  -24.9545    0.0000 N   0  0  0  0  0  0  0  0  0  0  0  0
    3.9623  -25.3655    0.0000 C   0  0  0  0  0  0  0  0  0  0  0  0
    4.6814  -24.1243    0.0000 O   0  0  0  0  0  0  0  0  0  0  0  0
    4.6814  -24.9517    0.0000 C   0  0  0  0  0  0  0  0  0  0  0  0
    3.9623  -26.1876    0.0000 C   0  0  0  0  0  0  0  0  0  0  0  0
    4.6814  -26.6013    0.0000 C   0  0  0  0  0  0  0  0  0  0  0  0
    4.6814  -27.4233    0.0000 C   0  0  0  0  0  0  0  0  0  0  0  0
    5.3927  -25.3628    0.0000 N   0  0  0  0  0  0  0  0  0  0  0  0
    6.1076  -24.9490    0.0000 C   0  0  0  0  0  0  0  0  0  0  0  0
    6.8189  -26.1821    0.0000 O   0  0  0  0  0  0  0  0  0  0  0  0
    6.8189  -25.3600    0.0000 C   0  0  0  0  0  0  0  0  0  0  0  0
    6.1076  -24.1216    0.0000 C   0  0  0  0  0  0  0  0  0  0  0  0
    6.8189  -23.7105    0.0000 C   0  0  0  0  0  0  0  0  0  0  0  0
    6.8189  -22.8831    0.0000 C   0  0  0  0  0  0  0  0  0  0  0  0
    7.5385  -24.1216    0.0000 C   0  0  0  0  0  0  0  0  0  0  0  0
    7.5380  -24.9463    0.0000 N   0  0  0  0  0  0  0  0  0  0  0  0
    8.2493  -25.3573    0.0000 C   0  0  0  0  0  0  0  0  0  0  0  0
    8.9642  -24.1203    0.0000 O   0  0  0  0  0  0  0  0  0  0  0  0
    8.9642  -24.9436    0.0000 C   0  0  0  0  0  0  0  0  0  0  0  0
    8.2493  -26.1836    0.0000 C   0  0  0  0  0  0  0  0  0  0  0  0
    8.9642  -26.5932    0.0000 O   0  0  0  0  0  0  0  0  0  0  0  0
    9.6795  -25.3588    0.0000 N   0  0  0  0  0  0  0  0  0  0  0  0
   10.3945  -24.9450    0.0000 C   0  0  0  0  0  0  0  0  0  0  0  0
   11.1058  -26.1781    0.0000 O   0  0  0  0  0  0  0  0  0  0  0  0
   11.1058  -25.3560    0.0000 C   0  0  0  0  0  0  0  0  0  0  0  0
   13.9701  -27.8249    0.0000 N   0  0  0  0  0  0  0  0  0  0  0  0
   13.9701  -28.6470    0.0000 C   0  0  0  0  0  0  0  0  0  0  0  0
   13.2505  -29.0621    0.0000 N   0  0  0  0  0  0  0  0  0  0  0  0
   14.6850  -29.0606    0.0000 N   0  0  0  0  0  0  0  0  0  0  0  0
   11.8248  -24.9423    0.0000 N   0  0  0  0  0  0  0  0  0  0  0  0
   12.5361  -25.3533    0.0000 C   0  0  0  0  0  0  0  0  0  0  0  0
   13.2510  -24.1121    0.0000 O   0  0  0  0  0  0  0  0  0  0  0  0
   13.2510  -24.9396    0.0000 C   0  0  0  0  0  0  0  0  0  0  0  0
   12.5361  -26.1754    0.0000 C   0  0  0  0  0  0  0  0  0  0  0  0
   13.2510  -26.5892    0.0000 C   0  0  0  0  0  0  0  0  0  0  0  0
   13.2510  -27.4111    0.0000 C   0  0  0  0  0  0  0  0  0  0  0  0
   13.9665  -25.3506    0.0000 N   0  0  0  0  0  0  0  0  0  0  0  0
   14.6814  -24.9368    0.0000 C   0  0  0  0  0  0  0  0  0  0  0  0
   15.3927  -26.1741    0.0000 O   0  0  0  0  0  0  0  0  0  0  0  0
   15.3927  -25.3479    0.0000 C   0  0  0  0  0  0  0  0  0  0  0  0
   14.6814  -24.1136    0.0000 C   0  0  0  0  0  0  0  0  0  0  0  0
   15.3927  -23.6984    0.0000 C   0  0  0  0  0  0  0  0  0  0  0  0
   15.3927  -22.8751    0.0000 C   0  0  0  0  0  0  0  0  0  0  0  0
   16.1040  -22.4641    0.0000 O   0  0  0  0  0  0  0  0  0  0  0  0
   14.6778  -22.4613    0.0000 O   0  0  0  0  0  0  0  0  0  0  0  0
   16.1117  -24.9383    0.0000 N   0  0  0  0  0  0  0  0  0  0  0  0
   16.8230  -25.3493    0.0000 C   0  0  0  0  0  0  0  0  0  0  0  0
   17.5379  -24.1081    0.0000 O   0  0  0  0  0  0  0  0  0  0  0  0
   17.5379  -24.9355    0.0000 C   0  0  0  0  0  0  0  0  0  0  0  0
   16.8230  -26.1714    0.0000 C   0  0  0  0  0  0  0  0  0  0  0  0
   17.5389  -27.4061    0.0000 C   0  0  0  0  0  0  0  0  0  0  0  0
   17.5379  -26.5851    0.0000 C   0  0  0  0  0  0  0  0  0  0  0  0
   18.2511  -26.1692    0.0000 C   0  0  0  0  0  0  0  0  0  0  0  0
   18.9685  -26.5797    0.0000 C   0  0  0  0  0  0  0  0  0  0  0  0
   18.9670  -27.4033    0.0000 C   0  0  0  0  0  0  0  0  0  0  0  0
   18.2563  -27.8166    0.0000 C   0  0  0  0  0  0  0  0  0  0  0  0
   18.2492  -25.3466    0.0000 N   0  0  0  0  0  0  0  0  0  0  0  0
   18.9683  -24.9328    0.0000 C   0  0  0  0  0  0  0  0  0  0  0  0
   19.6795  -26.1659    0.0000 O   0  0  0  0  0  0  0  0  0  0  0  0
   19.6795  -25.3439    0.0000 C   0  0  0  0  0  0  0  0  0  0  0  0
   18.9683  -24.1054    0.0000 C   0  0  0  0  0  0  0  0  0  0  0  0
   19.6795  -23.6944    0.0000 S   0  0  0  0  0  0  0  0  0  0  0  0
   22.5387  -27.8127    0.0000 N   0  0  0  0  0  0  0  0  0  0  0  0
   22.5387  -28.6390    0.0000 C   0  0  0  0  0  0  0  0  0  0  0  0
   21.8243  -29.0499    0.0000 N   0  0  0  0  0  0  0  0  0  0  0  0
   23.2525  -29.0526    0.0000 N   0  0  0  0  0  0  0  0  0  0  0  0
   20.3903  -24.9301    0.0000 N   0  0  0  0  0  0  0  0  0  0  0  0
   21.1099  -25.3411    0.0000 C   0  0  0  0  0  0  0  0  0  0  0  0
   21.8248  -24.1041    0.0000 O   0  0  0  0  0  0  0  0  0  0  0  0
   21.8248  -24.9274    0.0000 C   0  0  0  0  0  0  0  0  0  0  0  0
   21.1099  -26.1632    0.0000 C   0  0  0  0  0  0  0  0  0  0  0  0
   21.8248  -26.5770    0.0000 C   0  0  0  0  0  0  0  0  0  0  0  0
   21.8248  -27.4031    0.0000 C   0  0  0  0  0  0  0  0  0  0  0  0
   22.5340  -25.3384    0.0000 N   0  0  0  0  0  0  0  0  0  0  0  0
   23.2478  -24.9288    0.0000 C   0  0  0  0  0  0  0  0  0  0  0  0
   23.9611  -26.1619    0.0000 O   0  0  0  0  0  0  0  0  0  0  0  0
   23.2478  -24.1014    0.0000 C   0  0  0  0  0  0  0  0  0  0  0  0
   23.9611  -25.3399    0.0000 C   0  0  0  0  0  0  0  0  0  0  0  0
   24.6791  -24.9262    0.0000 N   0  0  0  0  0  0  0  0  0  0  0  0
   25.3924  -25.3371    0.0000 C   0  0  0  0  0  0  0  0  0  0  0  0
   26.1063  -24.0959    0.0000 O   0  0  0  0  0  0  0  0  0  0  0  0
   26.1063  -24.9235    0.0000 C   0  0  0  0  0  0  0  0  0  0  0  0
   25.3924  -26.1592    0.0000 C   0  0  0  0  0  0  0  0  0  0  0  0
   26.1063  -26.5730    0.0000 C   0  0  0  0  0  0  0  0  0  0  0  0
   24.6791  -26.5702    0.0000 C   0  0  0  0  0  0  0  0  0  0  0  0
   26.8196  -25.3344    0.0000 N   0  0  0  0  0  0  0  0  0  0  0  0
   27.5334  -24.9207    0.0000 C   0  0  0  0  0  0  0  0  0  0  0  0
   28.2467  -26.1579    0.0000 O   0  0  0  0  0  0  0  0  0  0  0  0
   28.2467  -25.3317    0.0000 C   0  0  0  0  0  0  0  0  0  0  0  0
   27.5334  -24.0932    0.0000 C   0  0  0  0  0  0  0  0  0  0  0  0
   28.2467  -23.6822    0.0000 C   0  0  0  0  0  0  0  0  0  0  0  0
   26.8196  -23.6836    0.0000 C   0  0  0  0  0  0  0  0  0  0  0  0
   26.8196  -22.8575    0.0000 C   0  0  0  0  0  0  0  0  0  0  0  0
   28.9647  -24.9180    0.0000 N   0  0  0  0  0  0  0  0  0  0  0  0
   29.6780  -25.3331    0.0000 C   0  0  0  0  0  0  0  0  0  0  0  0
   30.3918  -24.0919    0.0000 O   0  0  0  0  0  0  0  0  0  0  0  0
   30.3918  -24.9195    0.0000 C   0  0  0  0  0  0  0  0  0  0  0  0
   29.6780  -26.1552    0.0000 C   0  0  0  0  0  0  0  0  0  0  0  0
   30.3949  -27.3899    0.0000 C   0  0  0  0  0  0  0  0  0  0  0  0
   30.3918  -26.5690    0.0000 C   0  0  0  0  0  0  0  0  0  0  0  0
   31.1073  -26.1530    0.0000 C   0  0  0  0  0  0  0  0  0  0  0  0
   31.8187  -26.5635    0.0000 C   0  0  0  0  0  0  0  0  0  0  0  0
   31.8203  -27.3871    0.0000 C   0  0  0  0  0  0  0  0  0  0  0  0
   31.1063  -27.8004    0.0000 C   0  0  0  0  0  0  0  0  0  0  0  0
   31.1051  -25.3304    0.0000 N   0  0  0  0  0  0  0  0  0  0  0  0
   31.8190  -24.9167    0.0000 C   0  0  0  0  0  0  0  0  0  0  0  0
   32.5323  -26.1498    0.0000 O   0  0  0  0  0  0  0  0  0  0  0  0
   32.5323  -25.3277    0.0000 C   0  0  0  0  0  0  0  0  0  0  0  0
   31.8190  -24.0892    0.0000 C   0  0  0  0  0  0  0  0  0  0  0  0
   32.5323  -23.6782    0.0000 O   0  0  0  0  0  0  0  0  0  0  0  0
   31.1051  -23.6755    0.0000 C   0  0  0  0  0  0  0  0  0  0  0  0
   33.2503  -24.9140    0.0000 N   0  0  0  0  0  0  0  0  0  0  0  0
   33.9594  -25.3250    0.0000 C   0  0  0  0  0  0  0  0  0  0  0  0
   34.6775  -24.0879    0.0000 O   0  0  0  0  0  0  0  0  0  0  0  0
   34.6775  -24.9113    0.0000 C   0  0  0  0  0  0  0  0  0  0  0  0
   33.9594  -26.1470    0.0000 C   0  0  0  0  0  0  0  0  0  0  0  0
   34.6775  -26.5608    0.0000 S   0  0  0  0  0  0  0  0  0  0  0  0
   35.3908  -25.3222    0.0000 N   0  0  0  0  0  0  0  0  0  0  0  0
   36.1046  -24.9127    0.0000 C   0  0  0  0  0  0  0  0  0  0  0  0
   36.8178  -26.1457    0.0000 O   0  0  0  0  0  0  0  0  0  0  0  0
   36.8178  -25.3237    0.0000 C   0  0  0  0  0  0  0  0  0  0  0  0
   37.5317  -24.9100    0.0000 N   0  0  0  0  0  0  0  0  0  0  0  0
   38.2450  -25.3209    0.0000 C   0  0  0  0  0  0  0  0  0  0  0  0
   38.9630  -24.0798    0.0000 O   0  0  0  0  0  0  0  0  0  0  0  0
   38.9630  -24.9073    0.0000 C   0  0  0  0  0  0  0  0  0  0  0  0
   39.6763  -25.3182    0.0000 N   0  0  0  0  0  0  0  0  0  0  0  0
   40.3902  -24.9046    0.0000 C   0  0  0  0  0  0  0  0  0  0  0  0
   41.1035  -26.1417    0.0000 O   0  0  0  0  0  0  0  0  0  0  0  0
   41.1035  -25.3155    0.0000 C   0  0  0  0  0  0  0  0  0  0  0  0
   40.3902  -24.0770    0.0000 C   0  0  0  0  0  0  0  0  0  0  0  0
   41.1035  -23.6660    0.0000 O   0  0  0  0  0  0  0  0  0  0  0  0
   43.9624  -27.7885    0.0000 N   0  0  0  0  0  0  0  0  0  0  0  0
   43.9624  -28.6106    0.0000 C   0  0  0  0  0  0  0  0  0  0  0  0
   43.2533  -29.0215    0.0000 N   0  0  0  0  0  0  0  0  0  0  0  0
   44.6804  -29.0242    0.0000 N   0  0  0  0  0  0  0  0  0  0  0  0
   41.8173  -24.9018    0.0000 N   0  0  0  0  0  0  0  0  0  0  0  0
   42.5306  -25.3169    0.0000 C   0  0  0  0  0  0  0  0  0  0  0  0
   43.2486  -24.0758    0.0000 O   0  0  0  0  0  0  0  0  0  0  0  0
   43.2486  -24.9033    0.0000 C   0  0  0  0  0  0  0  0  0  0  0  0
   42.5306  -26.1390    0.0000 C   0  0  0  0  0  0  0  0  0  0  0  0
   43.2486  -26.5528    0.0000 C   0  0  0  0  0  0  0  0  0  0  0  0
   43.2486  -27.3747    0.0000 C   0  0  0  0  0  0  0  0  0  0  0  0
   43.9619  -25.3142    0.0000 N   0  0  0  0  0  0  0  0  0  0  0  0
   44.6757  -24.9006    0.0000 C   0  0  0  0  0  0  0  0  0  0  0  0
   45.3890  -26.1336    0.0000 O   0  0  0  0  0  0  0  0  0  0  0  0
   45.3890  -25.3115    0.0000 C   0  0  0  0  0  0  0  0  0  0  0  0
   44.6757  -24.0730    0.0000 C   0  0  0  0  0  0  0  0  0  0  0  0
   46.1413  -23.9949    0.0000 C   0  0  0  0  0  0  0  0  0  0  0  0
   45.3890  -23.6620    0.0000 C   0  0  0  0  0  0  0  0  0  0  0  0
   46.6924  -23.3826    0.0000 N   0  0  0  0  0  0  0  0  0  0  0  0
   45.4748  -22.8423    0.0000 C   0  0  0  0  0  0  0  0  0  0  0  0
   46.2792  -22.6686    0.0000 C   0  0  0  0  0  0  0  0  0  0  0  0
   46.5344  -21.8847    0.0000 C   0  0  0  0  0  0  0  0  0  0  0  0
   45.9810  -21.2703    0.0000 C   0  0  0  0  0  0  0  0  0  0  0  0
   45.1766  -21.4440    0.0000 C   0  0  0  0  0  0  0  0  0  0  0  0
   44.9214  -22.2278    0.0000 C   0  0  0  0  0  0  0  0  0  0  0  0
   46.1071  -24.8978    0.0000 O   0  0  0  0  0  0  0  0  0  0  0  0
  8 12  1  0
 16 17  1  0
 21 22  1  0
 25 29  1  0
 32 41  1  0
 44 45  1  0
 48 56  1  0
 59 63  1  0
 66 71  1  0
 74 77  1  0
 80 85  1  0
 88 92  1  0
 95101  1  0
104112  1  0
115122  1  0
125129  1  0
133134  1  0
137141  1  0
144149  1  0
152160  1  0
163167  1  0
170173  1  0
176177  1  0
180181  1  0
184191  1  0
194198  1  0
201212  1  0
  1  2  1  0
  2  3  1  0
  2  4  2  0
  5  6  1  0
  6  8  1  0
  8  7  2  0
  6  9  1  1
  9 10  1  0
 10 11  1  0
 11  1  1  0
 12 13  1  0
 13 16  1  0
 16 14  2  0
 13 15  1  6
 17 18  1  0
 18 21  1  0
 21 19  2  0
 18 20  1  1
 22 23  1  0
 23 25  1  1
 25 24  2  0
 23 26  1  0
 27 28  1  0
 28 26  1  0
 27 22  1  0
 29 30  1  0
 30 32  1  0
 32 31  2  0
 30 33  1  1
 33 35  1  0
 34 35  2  0
 35 36  1  0
 36 37  2  0
 37 38  1  0
 38 39  2  0
 39 34  1  0
 38 40  1  0
 41 42  1  0
 42 44  1  0
 44 43  2  0
 45 46  1  0
 46 48  1  0
 48 47  2  0
 46 49  1  1
 49 50  1  0
 49 51  1  0
 52 53  1  0
 53 54  1  0
 53 55  2  0
 56 57  1  0
 57 59  1  0
 59 58  2  0
 57 60  1  6
 60 61  1  0
 61 62  1  0
 62 52  1  0
 63 64  1  0
 64 66  1  0
 66 65  2  0
 64 67  1  1
 67 68  1  0
 68 69  1  0
 68 70  1  0
 71 72  1  0
 72 74  1  0
 74 73  2  0
 72 75  1  6
 75 76  1  0
 77 78  1  0
 78 80  1  0
 80 79  2  0
 81 82  1  0
 82 83  1  0
 82 84  2  0
 85 86  1  0
 86 88  1  0
 88 87  2  0
 86 89  1  6
 89 90  1  0
 90 91  1  0
 91 81  1  0
 92 93  1  0
 93 95  1  0
 95 94  2  0
 93 96  1  1
 96 97  1  0
 97 98  1  0
 98 99  2  0
 98100  1  0
101102  1  0
102104  1  0
104103  2  0
102105  1  6
105107  1  0
106107  2  0
107108  1  0
108109  2  0
109110  1  0
110111  2  0
111106  1  0
112113  1  0
113115  1  0
115114  2  0
113116  1  1
116117  1  0
118119  1  0
119120  1  0
119121  2  0
122123  1  0
123125  1  0
125124  2  0
123126  1  6
126127  1  0
127128  1  0
128118  1  0
129130  1  0
130133  1  0
133131  2  0
130132  1  1
134135  1  0
135137  1  0
137136  2  0
135138  1  6
138139  1  0
138140  1  0
142141  1  1
142144  1  0
144143  2  0
142145  1  0
145146  1  6
145147  1  0
147148  1  0
149150  1  0
150152  1  0
152151  2  0
150153  1  6
153155  1  0
154155  2  0
155156  1  0
156157  2  0
157158  1  0
158159  2  0
159154  1  0
161160  1  1
161163  1  0
163162  2  0
161164  1  0
164165  1  1
164166  1  0
167168  1  0
168170  1  0
170169  2  0
168171  1  6
171172  1  0
173174  1  0
174176  1  0
176175  2  0
177178  1  0
178180  1  0
180179  2  0
181182  1  0
182184  1  0
184183  2  0
182185  1  1
185186  1  0
187188  1  0
188189  1  0
188190  2  0
191192  1  0
192194  1  0
194193  2  0
192195  1  6
195196  1  0
196197  1  0
197187  1  0
198199  1  0
199201  1  0
201200  2  0
199202  1  1
202204  1  0
203204  2  0
204206  1  0
205203  1  0
207205  1  0
206207  2  0
207208  1  0
208209  2  0
209210  1  0
210211  2  0
211206  1  0
M  END

> <chembl_id>
CHEMBL2030694

> <chembl_pref_name>
None

$$$$

     RDKit          2D

 17 17  0  0  0  0  0  0  0  0999 V2000
   -3.2199   -4.1410    0.0000 C   0  0  0  0  0  0  0  0  0  0  0  0
   -3.9324   -4.5569    0.0000 C   0  0  0  0  0  0  0  0  0  0  0  0
   -3.9260   -5.3777    0.0000 C   0  0  0  0  0  0  0  0  0  0  0  0
   -2.5011   -4.5458    0.0000 C   0  0  0  0  0  0  0  0  0  0  0  0
   -2.5019   -5.3707    0.0000 C   0  0  0  0  0  0  0  0  0  0  0  0
   -3.2157   -6.6041    0.0000 C   0  0  0  0  0  0  0  0  0  0  0  0
   -2.5026   -7.0178    0.0000 C   0  0  0  0  0  0  0  0  0  0  0  0
   -1.7884   -6.6049    0.0000 C   0  0  0  0  0  0  0  0  0  0  0  0
   -1.7872   -5.7782    0.0000 C   0  0  0  0  0  0  0  0  0  0  0  0
   -3.9604   -6.7106    0.0000 C   0  0  0  0  0  0  0  0  0  0  0  0
   -4.3853   -5.9793    0.0000 C   0  0  0  0  0  0  0  0  0  0  0  0
   -1.7886   -4.1298    0.0000 C   0  0  0  0  0  0  0  0  0  0  0  0
   -3.2264   -3.3160    0.0000 O   0  0  0  0  0  0  0  0  0  0  0  0
   -2.5033   -7.8428    0.0000 C   0  0  0  0  0  0  0  0  0  0  0  0
   -5.1042   -5.5667    0.0000 C   0  0  0  0  0  0  0  0  0  0  0  0
   -5.1042   -6.3875    0.0000 C   0  0  0  0  0  0  0  0  0  0  0  0
   -1.7917   -4.9500    0.0000 N   0  0  0  0  0  0  0  0  0  0  0  0
  8  9  1  0
  6 10  1  0
  1  2  1  0
 11 10  1  0
  3 11  1  0
  1  4  1  0
  4 12  1  6
  2  3  2  0
  1 13  2  0
  5  4  1  0
  7 14  1  0
  5  9  1  0
 11 15  1  0
  6  7  2  0
 11 16  1  0
  7  8  1  0
  5 17  1  1
M  END

> <chembl_id>
CHEMBL1240894

> <chembl_pref_name>
None

$$$$

     RDKit          2D

 33 35  0  0  0  0  0  0  0  0999 V2000
   -3.2478    0.1364    0.0000 O   0  0  0  0  0  0  0  0  0  0  0  0
   -3.9622    3.8489    0.0000 O   0  0  0  0  0  0  0  0  0  0  0  0
   -2.5333    3.0239    0.0000 O   0  0  0  0  0  0  0  0  0  0  0  0
   -5.3912    3.0239    0.0000 O   0  0  0  0  0  0  0  0  0  0  0  0
   -4.6767    0.1364    0.0000 O   0  0  0  0  0  0  0  0  0  0  0  0
   -3.2478   -4.8136    0.0000 O   0  0  0  0  0  0  0  0  0  0  0  0
   -6.8201   -6.0511    0.0000 O   0  0  0  0  0  0  0  0  0  0  0  0
   -3.9622    3.0239    0.0000 C   0  0  0  0  0  0  0  0  0  0  0  0
   -3.9622    1.3739    0.0000 C   0  0  0  0  0  0  0  0  0  0  0  0
   -3.2478    2.6114    0.0000 C   0  0  0  0  0  0  0  0  0  0  0  0
   -4.6767    2.6114    0.0000 C   0  0  0  0  0  0  0  0  0  0  0  0
   -3.2478    1.7864    0.0000 C   0  0  0  0  0  0  0  0  0  0  0  0
   -4.6767    1.7864    0.0000 C   0  0  0  0  0  0  0  0  0  0  0  0
   -3.9622    0.5489    0.0000 C   0  0  0  0  0  0  0  0  0  0  0  0
   -3.2478   -0.6886    0.0000 C   0  0  0  0  0  0  0  0  0  0  0  0
   -3.2478   -2.3386    0.0000 C   0  0  0  0  0  0  0  0  0  0  0  0
   -2.5333   -1.1011    0.0000 C   0  0  0  0  0  0  0  0  0  0  0  0
   -3.9622   -1.1011    0.0000 C   0  0  0  0  0  0  0  0  0  0  0  0
   -4.6767   -4.8136    0.0000 C   0  0  0  0  0  0  0  0  0  0  0  0
   -2.5333   -1.9261    0.0000 C   0  0  0  0  0  0  0  0  0  0  0  0
   -3.9622   -1.9261    0.0000 C   0  0  0  0  0  0  0  0  0  0  0  0
   -3.9622   -4.4011    0.0000 C   0  0  0  0  0  0  0  0  0  0  0  0
   -3.2478   -3.1636    0.0000 C   0  0  0  0  0  0  0  0  0  0  0  0
   -3.9622   -3.5761    0.0000 C   0  0  0  0  0  0  0  0  0  0  0  0
   -3.2478    4.2614    0.0000 C   0  0  0  0  0  0  0  0  0  0  0  0
   -1.8188    2.6114    0.0000 C   0  0  0  0  0  0  0  0  0  0  0  0
   -6.1057    2.6114    0.0000 C   0  0  0  0  0  0  0  0  0  0  0  0
   -4.6767   -5.6386    0.0000 C   0  0  0  0  0  0  0  0  0  0  0  0
   -5.3912   -4.4011    0.0000 C   0  0  0  0  0  0  0  0  0  0  0  0
   -6.1057   -5.6386    0.0000 C   0  0  0  0  0  0  0  0  0  0  0  0
   -5.3912   -6.0511    0.0000 C   0  0  0  0  0  0  0  0  0  0  0  0
   -6.1057   -4.8136    0.0000 C   0  0  0  0  0  0  0  0  0  0  0  0
   -6.8201   -6.8761    0.0000 C   0  0  0  0  0  0  0  0  0  0  0  0
  1 14  1  0
  1 15  1  0
  2  8  1  0
  2 25  1  0
  3 10  1  0
  3 26  1  0
  4 11  1  0
  4 27  1  0
  5 14  2  0
  6 22  2  0
  7 30  1  0
  7 33  1  0
  8 10  2  0
  8 11  1  0
  9 12  2  0
  9 13  1  0
  9 14  1  0
 10 12  1  0
 11 13  2  0
 15 17  2  0
 15 18  1  0
 16 20  2  0
 16 21  1  0
 16 23  1  0
 17 20  1  0
 18 21  2  0
 19 22  1  0
 19 28  2  0
 19 29  1  0
 22 24  1  0
 23 24  2  0
 28 31  1  0
 29 32  2  0
 30 31  2  0
 30 32  1  0
M  END

> <chembl_id>
CHEMBL1440674

> <chembl_pref_name>
None

$$$$

     RDKit          2D

 26 28  0  0  0  0  0  0  0  0999 V2000
    4.4213   -0.2756    0.0000 O   0  0  0  0  0  0  0  0  0  0  0  0
    1.4772   -2.7460    0.0000 O   0  0  0  0  0  0  0  0  0  0  0  0
    2.1917   -2.3335    0.0000 O   0  0  0  0  0  0  0  0  0  0  0  0
    0.0483   -1.0960    0.0000 N   0  0  0  0  0  0  0  0  0  0  0  0
    0.0483   -2.7460    0.0000 N   0  0  0  0  0  0  0  0  0  0  0  0
    2.9061   -1.0960    0.0000 N   0  0  0  0  0  0  0  0  0  0  0  0
    5.2283   -0.1040    0.0000 N   0  0  0  0  0  0  0  0  0  0  0  0
    0.7627   -1.5085    0.0000 C   0  0  0  0  0  0  0  0  0  0  0  0
    0.7627   -2.3335    0.0000 C   0  0  0  0  0  0  0  0  0  0  0  0
    1.4772   -1.0960    0.0000 C   0  0  0  0  0  0  0  0  0  0  0  0
    0.0483   -0.2710    0.0000 C   0  0  0  0  0  0  0  0  0  0  0  0
   -0.6662   -1.5085    0.0000 C   0  0  0  0  0  0  0  0  0  0  0  0
    2.1917   -1.5085    0.0000 C   0  0  0  0  0  0  0  0  0  0  0  0
   -0.6662    0.1415    0.0000 C   0  0  0  0  0  0  0  0  0  0  0  0
    4.3351   -1.0960    0.0000 C   0  0  0  0  0  0  0  0  0  0  0  0
   -0.6662   -2.3335    0.0000 C   0  0  0  0  0  0  0  0  0  0  0  0
    5.6408   -0.8185    0.0000 C   0  0  0  0  0  0  0  0  0  0  0  0
    5.0888   -1.4316    0.0000 C   0  0  0  0  0  0  0  0  0  0  0  0
    3.6206   -1.5085    0.0000 C   0  0  0  0  0  0  0  0  0  0  0  0
   -1.3807   -0.2710    0.0000 C   0  0  0  0  0  0  0  0  0  0  0  0
   -0.6662    0.9665    0.0000 C   0  0  0  0  0  0  0  0  0  0  0  0
    6.4613   -0.9047    0.0000 C   0  0  0  0  0  0  0  0  0  0  0  0
   -2.0952    0.1415    0.0000 C   0  0  0  0  0  0  0  0  0  0  0  0
   -1.3807    1.3790    0.0000 C   0  0  0  0  0  0  0  0  0  0  0  0
   -2.0952    0.9665    0.0000 C   0  0  0  0  0  0  0  0  0  0  0  0
    6.9462   -0.2373    0.0000 C   0  0  0  0  0  0  0  0  0  0  0  0
  1  7  1  0
  1 15  1  0
  2  9  2  0
  3 13  2  0
  4  8  1  0
  4 11  1  0
  4 12  1  0
  5  9  1  0
  5 16  1  0
  6 13  1  0
  6 19  1  0
  7 17  2  0
  8  9  1  0
  8 10  1  0
 10 13  1  0
 11 14  1  0
 12 16  1  0
 14 20  1  0
 14 21  1  0
 15 18  2  0
 15 19  1  0
 17 18  1  0
 17 22  1  0
 20 23  1  0
 21 24  1  0
 22 26  1  0
 23 25  1  0
 24 25  1  0
M  END

> <chembl_id>
CHEMBL1400394

> <chembl_pref_name>
None

$$$$

     RDKit          2D

 30 32  0  0  0  0  0  0  0  0999 V2000
    2.0056   -2.0254    0.0000 Cl  0  0  0  0  0  0  0  0  0  0  0  0
   -0.1378   -4.9129    0.0000 F   0  0  0  0  0  0  0  0  0  0  0  0
    0.9891   -5.2149    0.0000 F   0  0  0  0  0  0  0  0  0  0  0  0
    0.1641   -3.7859    0.0000 F   0  0  0  0  0  0  0  0  0  0  0  0
   -1.5668   -3.2629    0.0000 O   0  0  0  0  0  0  0  0  0  0  0  0
   -5.8536   -1.6129    0.0000 O   0  0  0  0  0  0  0  0  0  0  0  0
   -0.1378   -4.0879    0.0000 O   0  0  0  0  0  0  0  0  0  0  0  0
   -2.2812   -2.0254    0.0000 O   0  0  0  0  0  0  0  0  0  0  0  0
    0.5766   -2.8504    0.0000 N   0  0  0  0  0  0  0  0  0  0  0  0
   -4.4247   -3.2629    0.0000 N   0  0  0  0  0  0  0  0  0  0  0  0
   -5.1391   -2.8504    0.0000 N   0  0  0  0  0  0  0  0  0  0  0  0
    1.2911   -4.0879    0.0000 C   0  0  0  0  0  0  0  0  0  0  0  0
    1.2911   -3.2629    0.0000 C   0  0  0  0  0  0  0  0  0  0  0  0
    0.5766   -4.5004    0.0000 C   0  0  0  0  0  0  0  0  0  0  0  0
   -3.7102   -2.0254    0.0000 C   0  0  0  0  0  0  0  0  0  0  0  0
   -4.4247   -1.6129    0.0000 C   0  0  0  0  0  0  0  0  0  0  0  0
   -3.7102   -2.8504    0.0000 C   0  0  0  0  0  0  0  0  0  0  0  0
    2.0056   -2.8504    0.0000 C   0  0  0  0  0  0  0  0  0  0  0  0
   -5.1391   -2.0254    0.0000 C   0  0  0  0  0  0  0  0  0  0  0  0
    2.0056   -4.5004    0.0000 C   0  0  0  0  0  0  0  0  0  0  0  0
    2.7201   -3.2629    0.0000 C   0  0  0  0  0  0  0  0  0  0  0  0
   -2.9957   -1.6129    0.0000 C   0  0  0  0  0  0  0  0  0  0  0  0
   -2.9957   -3.2629    0.0000 C   0  0  0  0  0  0  0  0  0  0  0  0
   -4.4247   -0.7879    0.0000 C   0  0  0  0  0  0  0  0  0  0  0  0
    2.7201   -4.0879    0.0000 C   0  0  0  0  0  0  0  0  0  0  0  0
   -0.1378   -3.2629    0.0000 C   0  0  0  0  0  0  0  0  0  0  0  0
   -2.2812   -2.8504    0.0000 C   0  0  0  0  0  0  0  0  0  0  0  0
   -2.9957   -0.7879    0.0000 C   0  0  0  0  0  0  0  0  0  0  0  0
   -3.7102   -0.3754    0.0000 C   0  0  0  0  0  0  0  0  0  0  0  0
   -0.8523   -2.8504    0.0000 C   0  0  0  0  0  0  0  0  0  0  0  0
  1 18  1  0
  2 14  1  0
  3 14  1  0
  4 14  1  0
  5 27  1  0
  5 30  1  0
  6 19  1  0
  7 26  2  0
  8 27  2  0
  9 13  1  0
  9 26  1  0
 10 11  1  0
 10 17  2  0
 11 19  2  0
 12 13  1  0
 12 14  1  0
 12 20  2  0
 13 18  2  0
 15 16  1  0
 15 17  1  0
 15 22  2  0
 16 19  1  0
 16 24  2  0
 17 23  1  0
 18 21  1  0
 20 25  1  0
 21 25  2  0
 22 28  1  0
 23 27  1  0
 24 29  1  0
 26 30  1  0
 28 29  2  0
M  END

> <chembl_id>
CHEMBL1400698

> <chembl_pref_name>
None

$$$$

     RDKit          2D

 36 40  0  0  0  0  0  0  0  0999 V2000
    6.7083    0.0542    0.0000 C   0  0  0  0  0  0  0  0  0  0  0  0
    6.7083   -0.7708    0.0000 C   0  0  0  0  0  0  0  0  0  0  0  0
    7.4204   -1.1792    0.0000 N   0  0  0  0  0  0  0  0  0  0  0  0
    8.1323   -0.7700    0.0000 C   0  0  0  0  0  0  0  0  0  0  0  0
    8.1319    0.0526    0.0000 C   0  0  0  0  0  0  0  0  0  0  0  0
    7.4204    0.4708    0.0000 C   0  0  0  0  0  0  0  0  0  0  0  0
    7.4204    1.2958    0.0000 O   0  0  0  0  0  0  0  0  0  0  0  0
    8.8595    0.4439    0.0000 C   0  0  0  0  0  0  0  0  0  0  0  0
    9.5623    0.0100    0.0000 O   0  0  0  0  0  0  0  0  0  0  0  0
    8.8872    1.2694    0.0000 O   0  0  0  0  0  0  0  0  0  0  0  0
   10.2886    0.4013    0.0000 C   0  0  0  0  0  0  0  0  0  0  0  0
   10.9906   -0.0321    0.0000 C   0  0  0  0  0  0  0  0  0  0  0  0
    7.4204   -2.0042    0.0000 C   0  0  0  0  0  0  0  0  0  0  0  0
    6.7059   -2.4167    0.0000 C   0  0  0  0  0  0  0  0  0  0  0  0
    8.1348   -2.4167    0.0000 O   0  0  0  0  0  0  0  0  0  0  0  0
    6.7059   -3.2417    0.0000 N   0  0  0  0  0  0  0  0  0  0  0  0
    8.8444   -1.1791    0.0000 C   0  0  0  0  0  0  0  0  0  0  0  0
    8.8424   -2.0052    0.0000 C   0  0  0  0  0  0  0  0  0  0  0  0
    9.5557   -2.4182    0.0000 C   0  0  0  0  0  0  0  0  0  0  0  0
   10.2715   -2.0063    0.0000 C   0  0  0  0  0  0  0  0  0  0  0  0
   10.2695   -1.1770    0.0000 C   0  0  0  0  0  0  0  0  0  0  0  0
    9.5556   -0.7677    0.0000 C   0  0  0  0  0  0  0  0  0  0  0  0
    5.9954   -1.1849    0.0000 C   0  0  0  0  0  0  0  0  0  0  0  0
    5.2801   -0.7717    0.0000 C   0  0  0  0  0  0  0  0  0  0  0  0
    4.5667   -1.1845    0.0000 C   0  0  0  0  0  0  0  0  0  0  0  0
    4.5674   -2.0104    0.0000 C   0  0  0  0  0  0  0  0  0  0  0  0
    5.2875   -2.4217    0.0000 C   0  0  0  0  0  0  0  0  0  0  0  0
    5.9980   -2.0065    0.0000 C   0  0  0  0  0  0  0  0  0  0  0  0
    6.0356   -3.7257    0.0000 C   0  0  0  0  0  0  0  0  0  0  0  0
    6.2906   -4.5113    0.0000 N   0  0  0  0  0  0  0  0  0  0  0  0
    7.3703   -3.7209    0.0000 C   0  0  0  0  0  0  0  0  0  0  0  0
    7.1153   -4.5059    0.0000 C   0  0  0  0  0  0  0  0  0  0  0  0
    7.6671   -5.1171    0.0000 C   0  0  0  0  0  0  0  0  0  0  0  0
    8.4739   -4.9446    0.0000 C   0  0  0  0  0  0  0  0  0  0  0  0
    8.7260   -4.1554    0.0000 C   0  0  0  0  0  0  0  0  0  0  0  0
    8.1726   -3.5476    0.0000 C   0  0  0  0  0  0  0  0  0  0  0  0
  2  3  1  0
 18 19  1  0
  8  9  1  0
 19 20  2  0
  8 10  2  0
 20 21  1  0
  3  4  1  0
 21 22  2  0
 22 17  1  0
  4 17  1  0
  9 11  1  0
  4  5  1  0
 23 24  2  0
 11 12  1  0
 24 25  1  0
  5  6  2  0
 25 26  2  0
  3 13  1  0
 26 27  1  0
 27 28  2  0
 28 23  1  0
  2 23  1  0
 29 30  2  0
 13 14  1  0
  6  7  1  0
 16 29  1  0
 30 32  1  0
 31 16  1  0
 13 15  1  0
  1  2  1  0
 31 32  2  0
 14 16  1  0
 32 33  1  0
  5  8  1  0
 33 34  2  0
  1  6  1  0
 34 35  1  0
 17 18  2  0
 35 36  2  0
 36 31  1  0
M  END

> <chembl_id>
CHEMBL1090698

> <chembl_pref_name>
None

$$$$

     RDKit          2D

 33 37  0  0  0  0  0  0  0  0999 V2000
   -0.5511    3.2779    0.0000 F   0  0  0  0  0  0  0  0  0  0  0  0
   -1.0808    2.2383    0.0000 F   0  0  0  0  0  0  0  0  0  0  0  0
    0.4884    2.7482    0.0000 F   0  0  0  0  0  0  0  0  0  0  0  0
    0.4686   -2.7647    0.0000 O   0  0  0  0  0  0  0  0  0  0  0  0
    0.2387   -1.3127    0.0000 N   0  0  0  0  0  0  0  0  0  0  0  0
    1.5082   -1.7252    0.0000 C   0  0  0  0  0  0  0  0  0  0  0  0
    0.7236   -0.6452    0.0000 C   0  0  0  0  0  0  0  0  0  0  0  0
    1.5082   -0.9002    0.0000 C   0  0  0  0  0  0  0  0  0  0  0  0
    0.7236   -1.9801    0.0000 C   0  0  0  0  0  0  0  0  0  0  0  0
    2.2227   -2.1377    0.0000 C   0  0  0  0  0  0  0  0  0  0  0  0
    0.4686    0.1394    0.0000 C   0  0  0  0  0  0  0  0  0  0  0  0
    2.2227   -0.4877    0.0000 C   0  0  0  0  0  0  0  0  0  0  0  0
   -0.5863   -1.3127    0.0000 C   0  0  0  0  0  0  0  0  0  0  0  0
    2.2227   -2.9627    0.0000 C   0  0  0  0  0  0  0  0  0  0  0  0
    2.9371   -1.7252    0.0000 C   0  0  0  0  0  0  0  0  0  0  0  0
    2.9371   -0.9002    0.0000 C   0  0  0  0  0  0  0  0  0  0  0  0
   -0.3383    0.3109    0.0000 C   0  0  0  0  0  0  0  0  0  0  0  0
    1.0207    0.7525    0.0000 C   0  0  0  0  0  0  0  0  0  0  0  0
   -0.9988   -2.0271    0.0000 C   0  0  0  0  0  0  0  0  0  0  0  0
   -0.0412    1.7086    0.0000 C   0  0  0  0  0  0  0  0  0  0  0  0
   -0.5933    1.0956    0.0000 C   0  0  0  0  0  0  0  0  0  0  0  0
    0.7657    1.5371    0.0000 C   0  0  0  0  0  0  0  0  0  0  0  0
    2.9371   -3.3752    0.0000 C   0  0  0  0  0  0  0  0  0  0  0  0
    1.5082   -3.3752    0.0000 C   0  0  0  0  0  0  0  0  0  0  0  0
   -0.2962    2.4933    0.0000 C   0  0  0  0  0  0  0  0  0  0  0  0
   -0.5863   -2.7416    0.0000 C   0  0  0  0  0  0  0  0  0  0  0  0
   -1.8238   -2.0271    0.0000 C   0  0  0  0  0  0  0  0  0  0  0  0
    2.9371   -4.2002    0.0000 C   0  0  0  0  0  0  0  0  0  0  0  0
    1.5082   -4.2002    0.0000 C   0  0  0  0  0  0  0  0  0  0  0  0
    2.2227   -4.6127    0.0000 C   0  0  0  0  0  0  0  0  0  0  0  0
   -0.9988   -3.4561    0.0000 C   0  0  0  0  0  0  0  0  0  0  0  0
   -2.2363   -2.7416    0.0000 C   0  0  0  0  0  0  0  0  0  0  0  0
   -1.8238   -3.4561    0.0000 C   0  0  0  0  0  0  0  0  0  0  0  0
  1 25  1  0
  2 25  1  0
  3 25  1  0
  4  9  2  0
  5  7  1  0
  5  9  1  0
  5 13  1  0
  6  8  1  0
  6  9  1  0
  6 10  1  0
  7  8  1  0
  7 11  1  0
  8 12  1  0
 10 14  1  0
 10 15  1  0
 11 17  2  0
 11 18  1  0
 12 16  2  0
 13 19  1  0
 14 23  2  0
 14 24  1  0
 15 16  1  0
 17 21  1  0
 18 22  2  0
 19 26  2  0
 19 27  1  0
 20 21  2  0
 20 22  1  0
 20 25  1  0
 23 28  1  0
 24 29  2  0
 26 31  1  0
 27 32  2  0
 28 30  2  0
 29 30  1  0
 31 33  2  0
 32 33  1  0
M  END

> <chembl_id>
CHEMBL1408694

> <chembl_pref_name>
None

$$$$

     RDKit          2D

 17 18  0  0  0  0  0  0  0  0999 V2000
    1.0408   -1.6501    0.0000 O   0  0  0  0  0  0  0  0  0  0  0  0
   -0.1152   -2.4900    0.0000 O   0  0  0  0  0  0  0  0  0  0  0  0
   -0.6771    0.2006    0.0000 N   0  0  0  0  0  0  0  0  0  0  0  0
   -0.6771    1.0256    0.0000 N   0  0  0  0  0  0  0  0  0  0  0  0
   -1.0896    2.2952    0.0000 N   0  0  0  0  0  0  0  0  0  0  0  0
   -0.2646    2.2952    0.0000 N   0  0  0  0  0  0  0  0  0  0  0  0
   -0.0096   -0.2843    0.0000 C   0  0  0  0  0  0  0  0  0  0  0  0
   -0.2646   -1.0689    0.0000 C   0  0  0  0  0  0  0  0  0  0  0  0
   -1.3445   -0.2843    0.0000 C   0  0  0  0  0  0  0  0  0  0  0  0
   -1.0896   -1.0689    0.0000 C   0  0  0  0  0  0  0  0  0  0  0  0
    0.2204   -1.7363    0.0000 C   0  0  0  0  0  0  0  0  0  0  0  0
   -1.3445    1.5106    0.0000 C   0  0  0  0  0  0  0  0  0  0  0  0
   -0.0096    1.5106    0.0000 C   0  0  0  0  0  0  0  0  0  0  0  0
    0.7750   -0.0293    0.0000 C   0  0  0  0  0  0  0  0  0  0  0  0
   -2.1291   -0.0293    0.0000 C   0  0  0  0  0  0  0  0  0  0  0  0
    1.5258   -2.3175    0.0000 C   0  0  0  0  0  0  0  0  0  0  0  0
    2.3462   -2.2313    0.0000 C   0  0  0  0  0  0  0  0  0  0  0  0
  1 11  1  0
  1 16  1  0
  2 11  2  0
  3  4  1  0
  3  7  1  0
  3  9  1  0
  4 12  1  0
  4 13  1  0
  5  6  1  0
  5 12  2  0
  6 13  2  0
  7  8  2  0
  7 14  1  0
  8 10  1  0
  8 11  1  0
  9 10  2  0
  9 15  1  0
 16 17  1  0
M  END

> <chembl_id>
CHEMBL1406894

> <chembl_pref_name>
None

$$$$

     RDKit          2D

 38 39  0  0  0  0  0  0  0  0999 V2000
    6.0250   -0.5000    0.0000 Na  0  0  0  0  0 15  0  0  0  0  0  0
    2.9875   -4.5292    0.0000 C   0  0  0  0  0  0  0  0  0  0  0  0
    2.2667   -4.1167    0.0000 C   0  0  0  0  0  0  0  0  0  0  0  0
    6.5417   -5.0250    0.0000 C   0  0  0  0  0  0  0  0  0  0  0  0
    3.7792   -4.3125    0.0000 C   0  0  0  0  0  0  0  0  0  0  0  0
    4.3667   -4.8917    0.0000 C   0  0  0  0  0  0  0  0  0  0  0  0
    1.5542   -4.5292    0.0000 C   0  0  0  0  0  0  0  0  0  0  0  0
    5.7417   -5.2500    0.0000 C   0  0  0  0  0  0  0  0  0  0  0  0
    2.2667   -3.2917    0.0000 O   0  0  0  0  0  0  0  0  0  0  0  0
    5.1542   -4.6667    0.0000 C   0  0  0  0  0  0  0  0  0  0  0  0
    3.6917   -0.8125    0.0000 C   0  0  0  0  0  0  0  0  0  0  0  0
    2.9750   -0.4042    0.0000 C   0  0  0  0  0  0  0  0  0  0  0  0
    2.9875   -5.3542    0.0000 C   0  0  0  0  0  0  0  0  0  0  0  0
    4.4917   -3.8917    0.0000 C   0  0  0  0  0  0  0  0  0  0  0  0
    1.5542   -5.3542    0.0000 C   0  0  0  0  0  0  0  0  0  0  0  0
    4.4042   -0.4000    0.0000 O   0  0  0  0  0  0  0  0  0  0  0  0
    2.2667   -5.7667    0.0000 C   0  0  0  0  0  0  0  0  0  0  0  0
    4.4042   -1.2250    0.0000 O   0  0  0  0  0  0  0  0  0  0  0  0
    2.2542   -0.8167    0.0000 C   0  0  0  0  0  0  0  0  0  0  0  0
    2.2542   -1.6417    0.0000 C   0  0  0  0  0  0  0  0  0  0  0  0
    7.2667   -4.8250    0.0000 F   0  0  0  0  0  0  0  0  0  0  0  0
    7.2417   -5.5250    0.0000 F   0  0  0  0  0  0  0  0  0  0  0  0
    6.8875   -4.2375    0.0000 F   0  0  0  0  0  0  0  0  0  0  0  0
    5.2125   -4.3042    0.0000 C   0  0  0  0  0  0  0  0  0  0  0  0
    4.4875   -3.0750    0.0000 C   0  0  0  0  0  0  0  0  0  0  0  0
    2.9792   -2.8792    0.0000 C   0  0  0  0  0  0  0  0  0  0  0  0
    5.9167   -3.0625    0.0000 C   0  0  0  0  0  0  0  0  0  0  0  0
    5.1917   -2.6542    0.0000 C   0  0  0  0  0  0  0  0  0  0  0  0
    5.9167   -3.8875    0.0000 C   0  0  0  0  0  0  0  0  0  0  0  0
    6.6292   -2.6417    0.0000 F   0  0  0  0  0  0  0  0  0  0  0  0
    4.1542   -5.6875    0.0000 C   0  0  0  0  0  0  0  0  0  0  0  0
    2.9792   -2.0542    0.0000 C   0  0  0  0  0  0  0  0  0  0  0  0
    1.5417   -0.4042    0.0000 O   0  0  0  0  0  0  0  0  0  0  0  0
    3.6917   -1.6375    0.0000 O   0  0  0  0  0  0  0  0  0  0  0  0
    5.5375   -6.0500    0.0000 C   0  0  0  0  0  0  0  0  0  0  0  0
    0.8417   -4.1167    0.0000 C   0  0  0  0  0  0  0  0  0  0  0  0
    4.7417   -6.2667    0.0000 C   0  0  0  0  0  0  0  0  0  0  0  0
    2.2667   -6.5917    0.0000 C   0  0  0  0  0  0  0  0  0  0  0  0
  3  2  2  0
  4  8  1  0
  5  2  1  0
  6  5  1  0
  7  3  1  0
  8 10  2  0
  9  3  1  0
 10  6  1  0
 11 12  1  0
 12 19  1  0
 13  2  1  0
 14  5  1  0
 15 17  1  0
 16 11  1  0
 17 13  2  0
 18 11  2  0
 19 20  1  0
 20 32  1  0
 21  4  1  0
 22  4  1  0
 23  4  1  0
 24 14  2  0
 25 14  1  0
 26  9  1  0
 27 28  1  0
 28 25  2  0
 29 24  1  0
 30 27  1  0
 31  6  2  0
 26 32  1  0
 19 33  1  1
 34 32  1  0
 35 37  2  0
 36  7  1  0
 37 31  1  0
 38 17  1  0
  7 15  2  0
 29 27  2  0
  8 35  1  0
M  CHG  2   1   1  16  -1
M  END

> <chembl_id>
CHEMBL100694

> <chembl_pref_name>
None

$$$$

     RDKit          2D

 20 20  0  0  0  0  0  0  0  0999 V2000
    3.6682   -2.7138    0.0000 O   0  0  0  0  0  0  0  0  0  0  0  0
    2.9538   -1.4763    0.0000 O   0  0  0  0  0  0  0  0  0  0  0  0
    5.0972    0.5862    0.0000 N   0  0  0  0  0  0  0  0  0  0  0  0
    4.3827    1.8237    0.0000 N   0  0  0  0  0  0  0  0  0  0  0  0
    3.6682    0.5862    0.0000 N   0  0  0  0  0  0  0  0  0  0  0  0
    3.6682   -1.8888    0.0000 N   0  0  0  0  0  0  0  0  0  0  0  0
    5.0972   -0.2388    0.0000 C   0  0  0  0  0  0  0  0  0  0  0  0
    4.3827    0.9987    0.0000 C   0  0  0  0  0  0  0  0  0  0  0  0
    5.8116   -0.6513    0.0000 C   0  0  0  0  0  0  0  0  0  0  0  0
    4.3827   -1.4763    0.0000 C   0  0  0  0  0  0  0  0  0  0  0  0
    4.3827   -0.6513    0.0000 C   0  0  0  0  0  0  0  0  0  0  0  0
    5.8116   -1.4763    0.0000 C   0  0  0  0  0  0  0  0  0  0  0  0
    5.0972   -1.8888    0.0000 C   0  0  0  0  0  0  0  0  0  0  0  0
    3.6682    2.2362    0.0000 C   0  0  0  0  0  0  0  0  0  0  0  0
    2.9538    0.9987    0.0000 C   0  0  0  0  0  0  0  0  0  0  0  0
    2.9538    1.8237    0.0000 C   0  0  0  0  0  0  0  0  0  0  0  0
    6.5261   -0.2388    0.0000 C   0  0  0  0  0  0  0  0  0  0  0  0
    3.6682    3.0612    0.0000 C   0  0  0  0  0  0  0  0  0  0  0  0
    2.2393    0.5862    0.0000 C   0  0  0  0  0  0  0  0  0  0  0  0
    0.0000    0.0000    0.0000 Cl  0  0  0  0  0  0  0  0  0  0  0  0
  1  6  1  0
  2  6  2  0
  3  7  1  0
  3  8  1  0
  4  8  1  0
  4 14  2  0
  5  8  2  0
  5 15  1  0
  6 10  1  0
  7  9  1  0
  7 11  2  0
  9 12  2  0
  9 17  1  0
 10 11  1  0
 10 13  2  0
 12 13  1  0
 14 16  1  0
 14 18  1  0
 15 16  2  0
 15 19  1  0
M  CHG  2   1  -1   6   1
M  END

> <chembl_id>
CHEMBL1400794

> <chembl_pref_name>
None

$$$$

     RDKit          2D

 25 27  0  0  0  0  0  0  0  0999 V2000
    2.4028    1.0095    0.0000 N   0  0  0  0  0  0  0  0  0  0  0  0
    3.1874    0.7545    0.0000 C   0  0  0  0  0  0  0  0  0  0  0  0
    3.1874   -0.0705    0.0000 N   0  0  0  0  0  0  0  0  0  0  0  0
    1.9178    0.3420    0.0000 C   0  0  0  0  0  0  0  0  0  0  0  0
    2.4028   -0.3254    0.0000 C   0  0  0  0  0  0  0  0  0  0  0  0
   -4.2697   -0.3724    0.0000 C   0  0  0  0  0  0  0  0  0  0  0  0
    1.0928    0.3420    0.0000 C   0  0  0  0  0  0  0  0  0  0  0  0
   -3.0322    0.3420    0.0000 N   0  0  0  0  0  0  0  0  0  0  0  0
    3.9019   -0.4830    0.0000 C   0  0  0  0  0  0  0  0  0  0  0  0
    3.9019    1.1670    0.0000 C   0  0  0  0  0  0  0  0  0  0  0  0
   -3.8572   -1.0869    0.0000 N   0  0  0  0  0  0  0  0  0  0  0  0
    0.6803   -0.3724    0.0000 C   0  0  0  0  0  0  0  0  0  0  0  0
   -3.8572    0.3420    0.0000 N   0  0  0  0  0  0  0  0  0  0  0  0
   -5.0947   -0.3724    0.0000 N   0  0  0  0  0  0  0  0  0  0  0  0
    4.6163   -0.0705    0.0000 C   0  0  0  0  0  0  0  0  0  0  0  0
    4.6163    0.7545    0.0000 C   0  0  0  0  0  0  0  0  0  0  0  0
    2.1478    1.7941    0.0000 C   0  0  0  0  0  0  0  0  0  0  0  0
   -2.6197   -0.3724    0.0000 C   0  0  0  0  0  0  0  0  0  0  0  0
   -0.1447   -0.3724    0.0000 C   0  0  0  0  0  0  0  0  0  0  0  0
   -1.7947   -0.3724    0.0000 C   0  0  0  0  0  0  0  0  0  0  0  0
   -5.5072   -1.0869    0.0000 O   0  0  0  0  0  0  0  0  0  0  0  0
   -0.5572    0.3420    0.0000 C   0  0  0  0  0  0  0  0  0  0  0  0
   -0.5572   -1.0869    0.0000 C   0  0  0  0  0  0  0  0  0  0  0  0
   -1.3822   -1.0869    0.0000 C   0  0  0  0  0  0  0  0  0  0  0  0
   -1.3822    0.3420    0.0000 C   0  0  0  0  0  0  0  0  0  0  0  0
  1  2  2  0
  3  2  1  0
  4  1  1  0
  5  4  2  0
  6 13  1  0
  7  4  1  0
  8 18  2  0
  9  3  1  0
 10  2  1  0
 11  6  2  0
 12  7  2  0
 13  8  1  0
 14  6  1  0
 15 16  1  0
 10 16  2  0
 17  1  1  0
 18 20  1  0
 19 12  1  0
 20 24  1  0
 21 14  1  0
 22 19  2  0
 23 19  1  0
 24 23  2  0
 25 22  1  0
  3  5  1  0
 15  9  2  0
 25 20  2  0
M  CHG  1   1   1
M  END

> <chembl_id>
CHEMBL1626587

> <chembl_pref_name>
None

$$$$

     RDKit          2D

 19 21  0  0  0  0  0  0  0  0999 V2000
   -2.6716   -6.3991    0.0000 C   0  0  0  0  0  0  0  0  0  0  0  0
   -1.9193   -6.7356    0.0000 C   0  0  0  0  0  0  0  0  0  0  0  0
   -1.2561   -6.2638    0.0000 C   0  0  0  0  0  0  0  0  0  0  0  0
   -2.7607   -5.5775    0.0000 C   0  0  0  0  0  0  0  0  0  0  0  0
   -3.3447   -6.8742    0.0000 C   0  0  0  0  0  0  0  0  0  0  0  0
   -0.5039   -6.6069    0.0000 N   0  0  0  0  0  0  0  0  0  0  0  0
   -4.0970   -6.5376    0.0000 C   0  0  0  0  0  0  0  0  0  0  0  0
   -3.5163   -5.2443    0.0000 C   0  0  0  0  0  0  0  0  0  0  0  0
   -4.1795   -5.7293    0.0000 C   0  0  0  0  0  0  0  0  0  0  0  0
   -1.3353   -5.4422    0.0000 C   0  0  0  0  0  0  0  0  0  0  0  0
   -2.0876   -5.0958    0.0000 C   0  0  0  0  0  0  0  0  0  0  0  0
   -4.7635   -7.0161    0.0000 O   0  0  0  0  0  0  0  0  0  0  0  0
   -4.9384   -5.3729    0.0000 O   0  0  0  0  0  0  0  0  0  0  0  0
   -1.8402   -7.5572    0.0000 C   0  0  0  0  0  0  0  0  0  0  0  0
   -0.4280   -7.4219    0.0000 C   0  0  0  0  0  0  0  0  0  0  0  0
    0.1659   -6.1252    0.0000 C   0  0  0  0  0  0  0  0  0  0  0  0
   -1.0879   -7.8971    0.0000 C   0  0  0  0  0  0  0  0  0  0  0  0
    0.9116   -6.4717    0.0000 C   0  0  0  0  0  0  0  0  0  0  0  0
    1.5847   -5.9932    0.0000 C   0  0  0  0  0  0  0  0  0  0  0  0
  2  1  1  0
  3  2  1  0
  4  1  2  0
  5  1  1  0
  6  3  1  0
  7  5  2  0
  8  4  1  0
  9  7  1  0
 10 11  1  0
 11  4  1  0
 12  7  1  0
 13  9  1  0
 14  2  1  0
 15 17  1  0
 16  6  1  0
 17 14  1  0
 18 16  1  0
 19 18  1  0
  8  9  2  0
 10  3  1  0
  6 15  1  0
M  END

> <chembl_id>
CHEMBL147846

> <chembl_pref_name>
None

$$$$

     RDKit          2D

 25 26  0  0  0  0  0  0  0  0999 V2000
    5.0972    0.0000    0.0000 Cl  0  0  0  0  0  0  0  0  0  0  0  0
   -0.7145    1.3406    0.0000 Cl  0  0  0  0  0  0  0  0  0  0  0  0
    0.7145   -1.1344    0.0000 O   0  0  0  0  0  0  0  0  0  0  0  0
    0.7145    2.1656    0.0000 O   0  0  0  0  0  0  0  0  0  0  0  0
    2.1434   -1.1344    0.0000 O   0  0  0  0  0  0  0  0  0  0  0  0
    2.1434    2.1656    0.0000 O   0  0  0  0  0  0  0  0  0  0  0  0
   -4.2868   -1.5469    0.0000 O   0  0  0  0  0  0  0  0  0  0  0  0
   -0.7145   -0.3094    0.0000 N   0  0  0  0  0  0  0  0  0  0  0  0
   -2.1434   -1.1344    0.0000 N   0  0  0  0  0  0  0  0  0  0  0  0
    1.4289    0.1031    0.0000 C   0  0  0  0  0  0  0  0  0  0  0  0
    1.4289    0.9281    0.0000 C   0  0  0  0  0  0  0  0  0  0  0  0
    0.0000    0.1031    0.0000 C   0  0  0  0  0  0  0  0  0  0  0  0
    0.7145   -0.3094    0.0000 C   0  0  0  0  0  0  0  0  0  0  0  0
    0.7145    1.3406    0.0000 C   0  0  0  0  0  0  0  0  0  0  0  0
    0.0000    0.9281    0.0000 C   0  0  0  0  0  0  0  0  0  0  0  0
    2.1434   -0.3094    0.0000 C   0  0  0  0  0  0  0  0  0  0  0  0
    2.1434    1.3406    0.0000 C   0  0  0  0  0  0  0  0  0  0  0  0
    2.8579    0.1031    0.0000 C   0  0  0  0  0  0  0  0  0  0  0  0
    2.8579    0.9281    0.0000 C   0  0  0  0  0  0  0  0  0  0  0  0
   -0.7145   -1.1344    0.0000 C   0  0  0  0  0  0  0  0  0  0  0  0
   -1.4289    0.1031    0.0000 C   0  0  0  0  0  0  0  0  0  0  0  0
   -1.4289   -1.5469    0.0000 C   0  0  0  0  0  0  0  0  0  0  0  0
   -2.1434   -0.3094    0.0000 C   0  0  0  0  0  0  0  0  0  0  0  0
   -2.8579   -1.5469    0.0000 C   0  0  0  0  0  0  0  0  0  0  0  0
   -3.5724   -1.1344    0.0000 C   0  0  0  0  0  0  0  0  0  0  0  0
  2 15  1  0
  3 13  2  0
  4 14  2  0
  5 16  1  0
  6 17  1  0
  7 25  1  0
  8 12  1  0
  8 20  1  0
  8 21  1  0
  9 22  1  0
  9 23  1  0
  9 24  1  0
 10 11  1  0
 10 13  1  0
 10 16  2  0
 11 14  1  0
 11 17  2  0
 12 13  1  0
 12 15  2  0
 14 15  1  0
 16 18  1  0
 17 19  1  0
 18 19  2  0
 20 22  1  0
 21 23  1  0
 24 25  1  0
M  END

> <chembl_id>
CHEMBL1706454

> <chembl_pref_name>
None

$$$$

     RDKit          2D

 14 14  0  0  0  0  0  0  0  0999 V2000
    7.4531   -1.5838    0.0000 Br  0  0  0  0  0  0  0  0  0  0  0  0
    4.1955    0.2934    0.0000 C   0  0  0  0  0  0  0  0  0  0  0  0
    3.9511   -0.8815    0.0000 C   0  0  0  0  0  0  0  0  0  0  0  0
    4.9531   -1.9978    0.0000 N   0  0  0  0  0  0  0  0  0  0  0  0
    4.2010   -3.2956    0.0000 N   0  0  0  0  0  0  0  0  0  0  0  0
    4.6873   -4.3927    0.0000 O   0  0  0  0  0  0  0  0  0  0  0  0
    2.7343   -2.9815    0.0000 C   0  0  0  0  0  0  0  0  0  0  0  0
    2.5987   -1.5004    0.0000 C   0  0  0  0  0  0  0  0  0  0  0  0
    1.2990   -0.7500    0.0000 C   0  0  0  0  0  0  0  0  0  0  0  0
    1.2990    0.7500    0.0000 C   0  0  0  0  0  0  0  0  0  0  0  0
    0.0000    1.5000    0.0000 C   0  0  0  0  0  0  0  0  0  0  0  0
   -1.2990    0.7500    0.0000 N   0  0  0  0  0  0  0  0  0  0  0  0
   -1.2990   -0.7500    0.0000 C   0  0  0  0  0  0  0  0  0  0  0  0
    0.0000   -1.5000    0.0000 C   0  0  0  0  0  0  0  0  0  0  0  0
  2  3  1  0
  3  4  2  0
  4  5  1  0
  5  6  1  0
  5  7  1  0
  7  8  2  0
  8  3  1  0
  8  9  1  0
  9 10  1  0
 10 11  1  0
 11 12  1  0
 12 13  1  0
 13 14  1  0
 14  9  1  0
M  END

> <chembl_id>
CHEMBL1202336

> <chembl_pref_name>
None

$$$$

     RDKit          2D

 30 33  0  0  0  0  0  0  0  0999 V2000
   -0.5170    0.9879    0.0000 S   0  0  0  0  0  0  0  0  0  0  0  0
   -0.7470    2.4400    0.0000 S   0  0  0  0  0  0  0  0  0  0  0  0
    4.3690   -2.0906    0.0000 F   0  0  0  0  0  0  0  0  0  0  0  0
    3.4623   -1.3563    0.0000 F   0  0  0  0  0  0  0  0  0  0  0  0
    3.6348   -2.9973    0.0000 F   0  0  0  0  0  0  0  0  0  0  0  0
    0.1504    1.4728    0.0000 O   0  0  0  0  0  0  0  0  0  0  0  0
   -1.1845    0.5030    0.0000 O   0  0  0  0  0  0  0  0  0  0  0  0
   -2.0819    4.2348    0.0000 O   0  0  0  0  0  0  0  0  0  0  0  0
   -0.0321    0.3205    0.0000 N   0  0  0  0  0  0  0  0  0  0  0  0
    0.9378   -1.0144    0.0000 N   0  0  0  0  0  0  0  0  0  0  0  0
   -1.8269    5.0194    0.0000 N   0  0  0  0  0  0  0  0  0  0  0  0
   -1.0019    1.6553    0.0000 C   0  0  0  0  0  0  0  0  0  0  0  0
   -1.4144    2.9249    0.0000 C   0  0  0  0  0  0  0  0  0  0  0  0
   -1.8269    1.6553    0.0000 C   0  0  0  0  0  0  0  0  0  0  0  0
   -1.4144    3.7499    0.0000 C   0  0  0  0  0  0  0  0  0  0  0  0
   -2.0819    2.4400    0.0000 C   0  0  0  0  0  0  0  0  0  0  0  0
    0.7884    0.4067    0.0000 C   0  0  0  0  0  0  0  0  0  0  0  0
   -0.3676   -0.4332    0.0000 C   0  0  0  0  0  0  0  0  0  0  0  0
    1.4227   -1.6819    0.0000 C   0  0  0  0  0  0  0  0  0  0  0  0
    1.2733   -0.2607    0.0000 C   0  0  0  0  0  0  0  0  0  0  0  0
    0.1173   -1.1007    0.0000 C   0  0  0  0  0  0  0  0  0  0  0  0
    2.7281   -2.2631    0.0000 C   0  0  0  0  0  0  0  0  0  0  0  0
    2.2432   -1.5956    0.0000 C   0  0  0  0  0  0  0  0  0  0  0  0
   -0.7470    4.2348    0.0000 C   0  0  0  0  0  0  0  0  0  0  0  0
    3.5486   -2.1768    0.0000 C   0  0  0  0  0  0  0  0  0  0  0  0
   -1.0019    5.0194    0.0000 C   0  0  0  0  0  0  0  0  0  0  0  0
    1.0871   -2.4355    0.0000 C   0  0  0  0  0  0  0  0  0  0  0  0
    2.3925   -3.0167    0.0000 C   0  0  0  0  0  0  0  0  0  0  0  0
    1.5720   -3.1030    0.0000 C   0  0  0  0  0  0  0  0  0  0  0  0
   -0.5170    5.6869    0.0000 C   0  0  0  0  0  0  0  0  0  0  0  0
  1  6  2  0
  1  7  2  0
  1  9  1  0
  1 12  1  0
  2 12  1  0
  2 13  1  0
  3 25  1  0
  4 25  1  0
  5 25  1  0
  8 11  1  0
  8 15  1  0
  9 17  1  0
  9 18  1  0
 10 19  1  0
 10 20  1  0
 10 21  1  0
 11 26  2  0
 12 14  2  0
 13 15  1  0
 13 16  2  0
 14 16  1  0
 15 24  2  0
 17 20  1  0
 18 21  1  0
 19 23  1  0
 19 27  2  0
 22 23  2  0
 22 25  1  0
 22 28  1  0
 24 26  1  0
 26 30  1  0
 27 29  1  0
 28 29  2  0
M  END

> <chembl_id>
CHEMBL1440604

> <chembl_pref_name>
None

$$$$

     RDKit          2D

 27 30  0  0  0  0  0  0  0  0999 V2000
    1.6194   -5.5666    0.0000 C   0  0  0  0  0  0  0  0  0  0  0  0
    1.6182   -6.3940    0.0000 C   0  0  0  0  0  0  0  0  0  0  0  0
    2.3331   -6.8069    0.0000 C   0  0  0  0  0  0  0  0  0  0  0  0
    3.0495   -6.3935    0.0000 C   0  0  0  0  0  0  0  0  0  0  0  0
    3.0466   -5.5630    0.0000 C   0  0  0  0  0  0  0  0  0  0  0  0
    2.3313   -5.1539    0.0000 N   0  0  0  0  0  0  0  0  0  0  0  0
    3.7646   -6.8049    0.0000 C   0  0  0  0  0  0  0  0  0  0  0  0
    3.7659   -7.6299    0.0000 C   0  0  0  0  0  0  0  0  0  0  0  0
    4.4784   -6.3913    0.0000 C   0  0  0  0  0  0  0  0  0  0  0  0
    3.0508   -8.0419    0.0000 C   0  0  0  0  0  0  0  0  0  0  0  0
    3.0517   -8.8662    0.0000 C   0  0  0  0  0  0  0  0  0  0  0  0
    3.7674   -9.2784    0.0000 C   0  0  0  0  0  0  0  0  0  0  0  0
    4.4836   -8.8603    0.0000 N   0  0  0  0  0  0  0  0  0  0  0  0
    4.4791   -8.0375    0.0000 C   0  0  0  0  0  0  0  0  0  0  0  0
    5.1936   -6.8027    0.0000 C   0  0  0  0  0  0  0  0  0  0  0  0
    4.4771   -5.5663    0.0000 N   0  0  0  0  0  0  0  0  0  0  0  0
    5.1943   -5.1557    0.0000 C   0  0  0  0  0  0  0  0  0  0  0  0
    5.1950   -4.3343    0.0000 C   0  0  0  0  0  0  0  0  0  0  0  0
    4.4817   -3.9191    0.0000 O   0  0  0  0  0  0  0  0  0  0  0  0
    3.7661   -4.3315    0.0000 C   0  0  0  0  0  0  0  0  0  0  0  0
    3.7637   -5.1591    0.0000 C   0  0  0  0  0  0  0  0  0  0  0  0
    5.1902   -7.6261    0.0000 C   0  0  0  0  0  0  0  0  0  0  0  0
    5.9045   -8.0374    0.0000 C   0  0  0  0  0  0  0  0  0  0  0  0
    6.6193   -7.6237    0.0000 C   0  0  0  0  0  0  0  0  0  0  0  0
    6.6153   -6.7944    0.0000 C   0  0  0  0  0  0  0  0  0  0  0  0
    5.9005   -6.3869    0.0000 C   0  0  0  0  0  0  0  0  0  0  0  0
    3.0458   -7.2125    0.0000 O   0  0  0  0  0  0  0  0  0  0  0  0
  1  2  2  0
 13 14  2  0
 14  8  1  0
  4  7  1  0
  9 15  1  0
  3  4  2  0
  9 16  1  0
 16 17  1  0
  7  8  1  0
  7  9  1  0
  4  5  1  0
  8 10  2  0
 16 21  1  0
 17 18  1  0
 18 19  1  0
 19 20  1  0
 20 21  1  0
  2  3  1  0
 15 22  2  0
 10 11  1  0
 22 23  1  0
  5  6  2  0
 23 24  2  0
 11 12  2  0
 24 25  1  0
  6  1  1  0
 25 26  2  0
 26 15  1  0
 12 13  1  0
  7 27  1  0
M  END

> <chembl_id>
CHEMBL1090794

> <chembl_pref_name>
None

$$$$

     RDKit          2D

 25 28  0  0  0  0  0  0  0  0999 V2000
    9.8777    1.7959    0.0000 C   0  0  0  0  0  0  0  0  0  0  0  0
    9.8766    0.9685    0.0000 C   0  0  0  0  0  0  0  0  0  0  0  0
   10.5914    0.5556    0.0000 C   0  0  0  0  0  0  0  0  0  0  0  0
   11.3078    0.9690    0.0000 N   0  0  0  0  0  0  0  0  0  0  0  0
   11.3050    1.7995    0.0000 C   0  0  0  0  0  0  0  0  0  0  0  0
   10.5896    2.2086    0.0000 N   0  0  0  0  0  0  0  0  0  0  0  0
   12.0179    2.2147    0.0000 N   0  0  0  0  0  0  0  0  0  0  0  0
   12.7339    1.8049    0.0000 C   0  0  0  0  0  0  0  0  0  0  0  0
   12.7337    0.9822    0.0000 C   0  0  0  0  0  0  0  0  0  0  0  0
   13.4488    0.5725    0.0000 C   0  0  0  0  0  0  0  0  0  0  0  0
   14.1627    0.9878    0.0000 C   0  0  0  0  0  0  0  0  0  0  0  0
   14.1570    1.8170    0.0000 C   0  0  0  0  0  0  0  0  0  0  0  0
   13.4412    2.2230    0.0000 C   0  0  0  0  0  0  0  0  0  0  0  0
   14.8792    0.5746    0.0000 N   0  0  0  0  0  0  0  0  0  0  0  0
   14.8814   -0.2513    0.0000 C   0  0  0  0  0  0  0  0  0  0  0  0
   15.5939   -0.6601    0.0000 C   0  0  0  0  0  0  0  0  0  0  0  0
   16.3087   -0.2475    0.0000 O   0  0  0  0  0  0  0  0  0  0  0  0
   16.3064    0.5785    0.0000 C   0  0  0  0  0  0  0  0  0  0  0  0
   15.5894    0.9918    0.0000 C   0  0  0  0  0  0  0  0  0  0  0  0
    9.1653    2.2080    0.0000 C   0  0  0  0  0  0  0  0  0  0  0  0
    9.1664    3.0341    0.0000 C   0  0  0  0  0  0  0  0  0  0  0  0
    8.4527    3.4464    0.0000 C   0  0  0  0  0  0  0  0  0  0  0  0
    7.7373    3.0337    0.0000 C   0  0  0  0  0  0  0  0  0  0  0  0
    7.7402    2.2044    0.0000 C   0  0  0  0  0  0  0  0  0  0  0  0
    8.4545    1.7959    0.0000 C   0  0  0  0  0  0  0  0  0  0  0  0
  6  1  1  0
 12 13  2  0
 13  8  1  0
 14 15  1  0
  1  2  2  0
  5  7  1  0
  3  4  2  0
  7  8  1  0
  8  9  2  0
 14 19  1  0
 15 16  1  0
 16 17  1  0
 17 18  1  0
 18 19  1  0
 11 14  1  0
  4  5  1  0
  9 10  1  0
 20 21  2  0
  2  3  1  0
 21 22  1  0
 10 11  2  0
 22 23  2  0
  5  6  2  0
 23 24  1  0
 11 12  1  0
 24 25  2  0
 25 20  1  0
  1 20  1  0
M  END

> <chembl_id>
CHEMBL1080394

> <chembl_pref_name>
None

$$$$

     RDKit          2D

 31 34  0  0  0  0  0  0  0  0999 V2000
   -3.4480   -6.1040    0.0000 N   0  0  0  0  0  0  0  0  0  0  0  0
   -2.7715   -6.5735    0.0000 C   0  0  0  0  0  0  0  0  0  0  0  0
   -2.1157   -6.0751    0.0000 C   0  0  0  0  0  0  0  0  0  0  0  0
   -2.3871   -5.2975    0.0000 S   0  0  0  0  0  0  0  0  0  0  0  0
   -3.2104   -5.3154    0.0000 C   0  0  0  0  0  0  0  0  0  0  0  0
   -4.1609   -6.5187    0.0000 C   0  0  0  0  0  0  0  0  0  0  0  0
   -3.9229   -4.8977    0.0000 N   0  0  0  0  0  0  0  0  0  0  0  0
   -3.9185   -4.0724    0.0000 C   0  0  0  0  0  0  0  0  0  0  0  0
   -1.3985   -6.4828    0.0000 C   0  0  0  0  0  0  0  0  0  0  0  0
   -0.6868   -6.0647    0.0000 C   0  0  0  0  0  0  0  0  0  0  0  0
   -4.8747   -6.1080    0.0000 C   0  0  0  0  0  0  0  0  0  0  0  0
   -5.5874   -6.5227    0.0000 C   0  0  0  0  0  0  0  0  0  0  0  0
   -5.5846   -7.3489    0.0000 C   0  0  0  0  0  0  0  0  0  0  0  0
   -4.8632   -7.7585    0.0000 C   0  0  0  0  0  0  0  0  0  0  0  0
   -4.1536   -7.3415    0.0000 C   0  0  0  0  0  0  0  0  0  0  0  0
   -3.1947   -3.6654    0.0000 C   0  0  0  0  0  0  0  0  0  0  0  0
   -3.1900   -2.8409    0.0000 C   0  0  0  0  0  0  0  0  0  0  0  0
   -3.9027   -2.4246    0.0000 C   0  0  0  0  0  0  0  0  0  0  0  0
   -4.6223   -2.8369    0.0000 C   0  0  0  0  0  0  0  0  0  0  0  0
   -4.6235   -3.6601    0.0000 C   0  0  0  0  0  0  0  0  0  0  0  0
   -2.7537   -7.3986    0.0000 O   0  0  0  0  0  0  0  0  0  0  0  0
    0.0299   -6.4757    0.0000 C   0  0  0  0  0  0  0  0  0  0  0  0
    0.7411   -6.0584    0.0000 C   0  0  0  0  0  0  0  0  0  0  0  0
    0.7354   -5.2322    0.0000 C   0  0  0  0  0  0  0  0  0  0  0  0
    0.0125   -4.8252    0.0000 C   0  0  0  0  0  0  0  0  0  0  0  0
   -0.6956   -5.2448    0.0000 C   0  0  0  0  0  0  0  0  0  0  0  0
    1.4464   -4.8134    0.0000 O   0  0  0  0  0  0  0  0  0  0  0  0
    0.0034   -3.9999    0.0000 O   0  0  0  0  0  0  0  0  0  0  0  0
    0.7136   -3.5795    0.0000 C   0  0  0  0  0  0  0  0  0  0  0  0
   -5.3397   -4.0701    0.0000 C   0  0  0  0  0  0  0  0  0  0  0  0
   -3.4354   -7.7481    0.0000 C   0  0  0  0  0  0  0  0  0  0  0  0
 15  6  1  0
  2  3  1  0
  8 16  2  0
  7  8  1  0
 16 17  1  0
  3  4  1  0
 17 18  2  0
  3  9  2  0
 18 19  1  0
  4  5  1  0
 19 20  2  0
 20  8  1  0
  9 10  1  0
  2 21  2  0
  5  1  1  0
 10 22  2  0
  6 11  2  0
 22 23  1  0
  1  2  1  0
 23 24  2  0
 11 12  1  0
 24 25  1  0
  1  6  1  0
 25 26  2  0
 26 10  1  0
 12 13  2  0
 24 27  1  0
 25 28  1  0
 13 14  1  0
 28 29  1  0
  5  7  2  0
 20 30  1  0
 14 15  2  0
 15 31  1  0
M  END

> <chembl_id>
CHEMBL1090894

> <chembl_pref_name>
None

$$$$

     RDKit          2D

 23 24  0  0  0  0  0  0  0  0999 V2000
    5.8993   -1.6053    0.0000 S   0  0  0  0  0  0  0  0  0  0  0  0
    1.5733   -1.6822    0.0000 O   0  0  0  0  0  0  0  0  0  0  0  0
    0.1443   -2.5072    0.0000 O   0  0  0  0  0  0  0  0  0  0  0  0
    2.2878   -0.4447    0.0000 O   0  0  0  0  0  0  0  0  0  0  0  0
   -1.9991   -1.2697    0.0000 O   0  0  0  0  0  0  0  0  0  0  0  0
    5.2319   -0.4492    0.0000 N   0  0  0  0  0  0  0  0  0  0  0  0
   -0.5701   -1.2697    0.0000 N   0  0  0  0  0  0  0  0  0  0  0  0
   -1.2846   -2.5072    0.0000 N   0  0  0  0  0  0  0  0  0  0  0  0
    6.4513   -0.9922    0.0000 C   0  0  0  0  0  0  0  0  0  0  0  0
    6.0388   -0.2777    0.0000 C   0  0  0  0  0  0  0  0  0  0  0  0
    5.1456   -1.2697    0.0000 C   0  0  0  0  0  0  0  0  0  0  0  0
    7.2763   -0.9922    0.0000 C   0  0  0  0  0  0  0  0  0  0  0  0
    6.4513    0.4368    0.0000 C   0  0  0  0  0  0  0  0  0  0  0  0
    4.4312   -1.6822    0.0000 C   0  0  0  0  0  0  0  0  0  0  0  0
    7.6888   -0.2777    0.0000 C   0  0  0  0  0  0  0  0  0  0  0  0
    7.2763    0.4368    0.0000 C   0  0  0  0  0  0  0  0  0  0  0  0
    0.8588   -1.2697    0.0000 C   0  0  0  0  0  0  0  0  0  0  0  0
    0.1443   -1.6822    0.0000 C   0  0  0  0  0  0  0  0  0  0  0  0
    3.7167   -1.2697    0.0000 C   0  0  0  0  0  0  0  0  0  0  0  0
    2.2878   -1.2697    0.0000 C   0  0  0  0  0  0  0  0  0  0  0  0
    3.0022   -1.6822    0.0000 C   0  0  0  0  0  0  0  0  0  0  0  0
   -1.2846   -1.6822    0.0000 C   0  0  0  0  0  0  0  0  0  0  0  0
    0.8588   -0.4447    0.0000 C   0  0  0  0  0  0  0  0  0  0  0  0
  1  9  1  0
  1 11  1  0
  2 17  1  0
  2 20  1  0
  3 18  2  0
  4 20  2  0
  5 22  2  0
  6 10  1  0
  6 11  2  0
  7 18  1  0
  7 22  1  0
  8 22  1  0
  9 10  1  0
  9 12  2  0
 10 13  2  0
 11 14  1  0
 12 15  1  0
 13 16  1  0
 14 19  1  0
 15 16  2  0
 17 18  1  0
 17 23  1  0
 19 21  1  0
 20 21  1  0
M  END

> <chembl_id>
CHEMBL1409694

> <chembl_pref_name>
None

$$$$

     RDKit          2D

 32 33  0  0  1  0  0  0  0  0999 V2000
   -3.5613   -0.4005    0.0000 S   0  0  0  0  0  0  0  0  0  0  0  0
    2.8689   -1.6380    0.0000 F   0  0  0  0  0  0  0  0  0  0  0  0
   -4.3863   -0.4005    0.0000 O   0  0  0  0  0  0  0  0  0  0  0  0
   -2.7363   -0.4005    0.0000 O   0  0  0  0  0  0  0  0  0  0  0  0
   -2.1324   -3.7005    0.0000 O   0  0  0  0  0  0  0  0  0  0  0  0
    0.0111   -1.6380    0.0000 O   0  0  0  0  0  0  0  0  0  0  0  0
   -3.5613    0.4245    0.0000 N   0  0  0  0  0  0  0  0  0  0  0  0
   -1.4179   -2.4630    0.0000 N   0  0  0  0  0  0  0  0  0  0  0  0
    0.7255   -2.8755    0.0000 N   0  0  0  0  0  0  0  0  0  0  0  0
   -3.5613   -1.2255    0.0000 C   0  0  0  0  0  0  0  0  0  0  0  0
   -2.8468   -2.4630    0.0000 C   0  0  0  0  0  0  0  0  0  0  0  0
   -2.8468   -1.6380    0.0000 C   0  0  0  0  0  0  0  0  0  0  0  0
   -4.2758   -1.6380    0.0000 C   0  0  0  0  0  0  0  0  0  0  0  0
   -2.1324   -2.8755    0.0000 C   0  0  0  0  0  0  0  0  0  0  0  0
   -3.5613   -2.8755    0.0000 C   0  0  0  0  0  0  0  0  0  0  0  0
   -0.7034   -2.8755    0.0000 C   0  0  0  0  0  0  0  0  0  0  0  0
   -4.2758   -2.4630    0.0000 C   0  0  0  0  0  0  0  0  0  0  0  0
   -4.2758    0.8370    0.0000 C   0  0  0  0  0  0  0  0  0  0  0  0
   -2.8468    0.8370    0.0000 C   0  0  0  0  0  0  0  0  0  0  0  0
    0.0111   -2.4630    0.0000 C   0  0  0  0  0  0  0  0  0  0  0  0
   -0.7034   -3.7005    0.0000 C   0  0  0  0  0  0  0  0  0  0  0  0
    2.1545   -2.8755    0.0000 C   0  0  0  0  0  0  0  0  0  0  0  0
    1.4400   -2.4630    0.0000 C   0  0  0  0  0  0  0  0  0  0  0  0
    2.8689   -2.4630    0.0000 C   0  0  0  0  0  0  0  0  0  0  0  0
   -4.2758    1.6620    0.0000 C   0  0  0  0  0  0  0  0  0  0  0  0
   -2.8468    1.6620    0.0000 C   0  0  0  0  0  0  0  0  0  0  0  0
    2.1545   -3.7005    0.0000 C   0  0  0  0  0  0  0  0  0  0  0  0
    0.0111   -4.1130    0.0000 C   0  0  0  0  0  0  0  0  0  0  0  0
   -1.4179   -4.1130    0.0000 C   0  0  0  0  0  0  0  0  0  0  0  0
    3.5834   -2.8755    0.0000 C   0  0  0  0  0  0  0  0  0  0  0  0
    2.8689   -4.1130    0.0000 C   0  0  0  0  0  0  0  0  0  0  0  0
    3.5834   -3.7005    0.0000 C   0  0  0  0  0  0  0  0  0  0  0  0
  1  3  2  0
  1  4  2  0
  1  7  1  0
  1 10  1  0
  2 24  1  0
  5 14  2  0
  6 20  2  0
  7 18  1  0
  7 19  1  0
  8 14  1  0
 16  8  1  6
  9 20  1  0
  9 23  1  0
 10 12  1  0
 10 13  2  0
 11 12  2  0
 11 14  1  0
 11 15  1  0
 13 17  1  0
 15 17  2  0
 16 20  1  0
 16 21  1  0
 18 25  1  0
 19 26  1  0
 21 28  1  0
 21 29  1  0
 22 23  1  0
 22 24  1  0
 22 27  2  0
 24 30  2  0
 27 31  1  0
 30 32  1  0
 31 32  2  0
M  END

> <chembl_id>
CHEMBL1340654

> <chembl_pref_name>
None

$$$$

     RDKit          2D

 19 20  0  0  0  0  0  0  0  0999 V2000
    3.6682   -2.7138    0.0000 O   0  0  0  0  0  0  0  0  0  0  0  0
    2.9538   -1.4763    0.0000 O   0  0  0  0  0  0  0  0  0  0  0  0
    5.0972    0.5862    0.0000 N   0  0  0  0  0  0  0  0  0  0  0  0
    4.3827    1.8237    0.0000 N   0  0  0  0  0  0  0  0  0  0  0  0
    3.6682    0.5862    0.0000 N   0  0  0  0  0  0  0  0  0  0  0  0
    3.6682   -1.8888    0.0000 N   0  0  0  0  0  0  0  0  0  0  0  0
    5.0972   -0.2388    0.0000 C   0  0  0  0  0  0  0  0  0  0  0  0
    4.3827    0.9987    0.0000 C   0  0  0  0  0  0  0  0  0  0  0  0
    5.8116   -0.6513    0.0000 C   0  0  0  0  0  0  0  0  0  0  0  0
    4.3827   -1.4763    0.0000 C   0  0  0  0  0  0  0  0  0  0  0  0
    4.3827   -0.6513    0.0000 C   0  0  0  0  0  0  0  0  0  0  0  0
    5.8116   -1.4763    0.0000 C   0  0  0  0  0  0  0  0  0  0  0  0
    5.0972   -1.8888    0.0000 C   0  0  0  0  0  0  0  0  0  0  0  0
    3.6682    2.2362    0.0000 C   0  0  0  0  0  0  0  0  0  0  0  0
    2.9538    0.9987    0.0000 C   0  0  0  0  0  0  0  0  0  0  0  0
    2.9538    1.8237    0.0000 C   0  0  0  0  0  0  0  0  0  0  0  0
    6.5261   -0.2388    0.0000 C   0  0  0  0  0  0  0  0  0  0  0  0
    3.6682    3.0612    0.0000 C   0  0  0  0  0  0  0  0  0  0  0  0
    2.2393    0.5862    0.0000 C   0  0  0  0  0  0  0  0  0  0  0  0
  1  6  1  0
  2  6  2  0
  3  7  1  0
  3  8  1  0
  4  8  1  0
  4 14  2  0
  5  8  2  0
  5 15  1  0
  6 10  1  0
  7  9  1  0
  7 11  2  0
  9 12  2  0
  9 17  1  0
 10 11  1  0
 10 13  2  0
 12 13  1  0
 14 16  1  0
 14 18  1  0
 15 16  2  0
 15 19  1  0
M  CHG  2   1  -1   6   1
M  END

> <chembl_id>
CHEMBL1619705

> <chembl_pref_name>
None

$$$$

     RDKit          2D

 27 30  0  0  0  0  0  0  0  0999 V2000
   -4.8773   -2.3361    0.0000 S   0  0  0  0  0  0  0  0  0  0  0  0
   -3.3782   -0.0187    0.0000 O   0  0  0  0  0  0  0  0  0  0  0  0
    2.3767   -2.4167    0.0000 O   0  0  0  0  0  0  0  0  0  0  0  0
   -0.5204   -3.3187    0.0000 O   0  0  0  0  0  0  0  0  0  0  0  0
   -3.3782   -2.4937    0.0000 N   0  0  0  0  0  0  0  0  0  0  0  0
   -2.6638   -1.2562    0.0000 N   0  0  0  0  0  0  0  0  0  0  0  0
    0.1941   -2.0812    0.0000 N   0  0  0  0  0  0  0  0  0  0  0  0
   -4.0927   -1.2562    0.0000 C   0  0  0  0  0  0  0  0  0  0  0  0
   -4.8773   -1.0012    0.0000 C   0  0  0  0  0  0  0  0  0  0  0  0
   -4.0927   -2.0812    0.0000 C   0  0  0  0  0  0  0  0  0  0  0  0
   -5.3623   -1.6687    0.0000 C   0  0  0  0  0  0  0  0  0  0  0  0
   -3.3782   -0.8437    0.0000 C   0  0  0  0  0  0  0  0  0  0  0  0
   -2.6638   -2.0812    0.0000 C   0  0  0  0  0  0  0  0  0  0  0  0
   -5.2129   -0.2476    0.0000 C   0  0  0  0  0  0  0  0  0  0  0  0
   -6.1827   -1.5825    0.0000 C   0  0  0  0  0  0  0  0  0  0  0  0
   -6.0334   -0.1613    0.0000 C   0  0  0  0  0  0  0  0  0  0  0  0
   -1.9493   -2.4937    0.0000 C   0  0  0  0  0  0  0  0  0  0  0  0
   -6.5183   -0.8288    0.0000 C   0  0  0  0  0  0  0  0  0  0  0  0
   -1.2348   -2.0812    0.0000 C   0  0  0  0  0  0  0  0  0  0  0  0
   -0.5204   -2.4937    0.0000 C   0  0  0  0  0  0  0  0  0  0  0  0
    1.6231   -2.0812    0.0000 C   0  0  0  0  0  0  0  0  0  0  0  0
    0.9086   -2.4937    0.0000 C   0  0  0  0  0  0  0  0  0  0  0  0
    2.9288   -1.8036    0.0000 C   0  0  0  0  0  0  0  0  0  0  0  0
    1.7093   -1.2607    0.0000 C   0  0  0  0  0  0  0  0  0  0  0  0
    2.5163   -1.0892    0.0000 C   0  0  0  0  0  0  0  0  0  0  0  0
    0.1941   -1.2562    0.0000 C   0  0  0  0  0  0  0  0  0  0  0  0
    3.7492   -1.8899    0.0000 C   0  0  0  0  0  0  0  0  0  0  0  0
  1 10  1  0
  1 11  1  0
  2 12  1  0
  3 21  1  0
  3 23  1  0
  4 20  2  0
  5 10  2  0
  5 13  1  0
  6 12  1  0
  6 13  2  0
  7 20  1  0
  7 22  1  0
  7 26  1  0
  8  9  1  0
  8 10  1  0
  8 12  2  0
  9 11  2  0
  9 14  1  0
 11 15  1  0
 13 17  1  0
 14 16  1  0
 15 18  1  0
 16 18  1  0
 17 19  1  0
 19 20  1  0
 21 22  1  0
 21 24  2  0
 23 25  2  0
 23 27  1  0
 24 25  1  0
M  END

> <chembl_id>
CHEMBL1340634

> <chembl_pref_name>
None

$$$$

     RDKit          2D

 24 25  0  0  0  0  0  0  0  0999 V2000
   -3.2833    1.6411    0.0000 S   0  0  0  0  0  0  0  0  0  0  0  0
   -8.9991   -0.8339    0.0000 F   0  0  0  0  0  0  0  0  0  0  0  0
   -1.1399   -0.4214    0.0000 O   0  0  0  0  0  0  0  0  0  0  0  0
   -4.7123    1.6411    0.0000 O   0  0  0  0  0  0  0  0  0  0  0  0
   -1.8544    0.8161    0.0000 N   0  0  0  0  0  0  0  0  0  0  0  0
   -2.5689    0.4036    0.0000 N   0  0  0  0  0  0  0  0  0  0  0  0
   -3.9978    0.4036    0.0000 N   0  0  0  0  0  0  0  0  0  0  0  0
    1.0035    0.8161    0.0000 N   0  0  0  0  0  0  0  0  0  0  0  0
   -0.4255    0.8161    0.0000 C   0  0  0  0  0  0  0  0  0  0  0  0
   -1.1399    0.4036    0.0000 C   0  0  0  0  0  0  0  0  0  0  0  0
   -3.2833    0.8161    0.0000 C   0  0  0  0  0  0  0  0  0  0  0  0
   -6.8557    0.4036    0.0000 C   0  0  0  0  0  0  0  0  0  0  0  0
    0.2890    0.4036    0.0000 C   0  0  0  0  0  0  0  0  0  0  0  0
   -0.4255    1.6411    0.0000 C   0  0  0  0  0  0  0  0  0  0  0  0
   -4.7123    0.8161    0.0000 C   0  0  0  0  0  0  0  0  0  0  0  0
   -6.1412    0.8161    0.0000 C   0  0  0  0  0  0  0  0  0  0  0  0
   -5.4268    0.4036    0.0000 C   0  0  0  0  0  0  0  0  0  0  0  0
   -6.8557   -0.4214    0.0000 C   0  0  0  0  0  0  0  0  0  0  0  0
   -7.5702    0.8161    0.0000 C   0  0  0  0  0  0  0  0  0  0  0  0
    0.2890    2.0536    0.0000 C   0  0  0  0  0  0  0  0  0  0  0  0
   -8.2846   -0.4214    0.0000 C   0  0  0  0  0  0  0  0  0  0  0  0
   -7.5702   -0.8339    0.0000 C   0  0  0  0  0  0  0  0  0  0  0  0
   -8.2846    0.4036    0.0000 C   0  0  0  0  0  0  0  0  0  0  0  0
    1.0035    1.6411    0.0000 C   0  0  0  0  0  0  0  0  0  0  0  0
  1 11  2  0
  2 21  1  0
  3 10  2  0
  4 15  2  0
  5  6  1  0
  5 10  1  0
  6 11  1  0
  7 11  1  0
  7 15  1  0
  8 13  2  0
  8 24  1  0
  9 10  1  0
  9 13  1  0
  9 14  2  0
 12 16  1  0
 12 18  2  0
 12 19  1  0
 14 20  1  0
 15 17  1  0
 16 17  2  0
 18 22  1  0
 19 23  2  0
 20 24  2  0
 21 22  2  0
 21 23  1  0
M  END

> <chembl_id>
CHEMBL1547694

> <chembl_pref_name>
None

$$$$

     RDKit          2D

 20 21  0  0  0  0  0  0  0  0999 V2000
    3.1437    0.3300    0.0000 O   0  0  0  0  0  0  0  0  0  0  0  0
   -0.4287   -0.9075    0.0000 O   0  0  0  0  0  0  0  0  0  0  0  0
   -4.0010    0.3300    0.0000 O   0  0  0  0  0  0  0  0  0  0  0  0
   -3.2866    1.5675    0.0000 O   0  0  0  0  0  0  0  0  0  0  0  0
    1.7147   -0.4950    0.0000 N   0  0  0  0  0  0  0  0  0  0  0  0
   -3.2866    0.7425    0.0000 N   0  0  0  0  0  0  0  0  0  0  0  0
   -1.1432   -0.4950    0.0000 C   0  0  0  0  0  0  0  0  0  0  0  0
   -2.5721    0.3300    0.0000 C   0  0  0  0  0  0  0  0  0  0  0  0
    3.1437   -0.4950    0.0000 C   0  0  0  0  0  0  0  0  0  0  0  0
    2.4292    0.7425    0.0000 C   0  0  0  0  0  0  0  0  0  0  0  0
    2.4292   -0.9075    0.0000 C   0  0  0  0  0  0  0  0  0  0  0  0
    1.7147    0.3300    0.0000 C   0  0  0  0  0  0  0  0  0  0  0  0
    1.0003   -0.9075    0.0000 C   0  0  0  0  0  0  0  0  0  0  0  0
   -1.8576   -0.9075    0.0000 C   0  0  0  0  0  0  0  0  0  0  0  0
   -1.1432    0.3300    0.0000 C   0  0  0  0  0  0  0  0  0  0  0  0
   -2.5721   -0.4950    0.0000 C   0  0  0  0  0  0  0  0  0  0  0  0
   -1.8576    0.7425    0.0000 C   0  0  0  0  0  0  0  0  0  0  0  0
    0.2858   -0.4950    0.0000 C   0  0  0  0  0  0  0  0  0  0  0  0
    3.8581   -0.9075    0.0000 C   0  0  0  0  0  0  0  0  0  0  0  0
    2.4292    1.5675    0.0000 C   0  0  0  0  0  0  0  0  0  0  0  0
  1  9  1  0
  1 10  1  0
  2  7  1  0
  2 18  1  0
  3  6  1  0
  4  6  2  0
  5 11  1  0
  5 12  1  0
  5 13  1  0
  6  8  1  0
  7 14  2  0
  7 15  1  0
  8 16  2  0
  8 17  1  0
  9 11  1  0
  9 19  1  0
 10 12  1  0
 10 20  1  0
 13 18  1  0
 14 16  1  0
 15 17  2  0
M  CHG  2   3  -1   6   1
M  END

> <chembl_id>
CHEMBL1619839

> <chembl_pref_name>
None

$$$$

     RDKit          2D

 24 26  0  0  0  0  0  0  0  0999 V2000
    1.2574    0.3644    0.0000 O   0  0  0  0  0  0  0  0  0  0  0  0
   -0.3565   -1.3135    0.0000 N   0  0  0  0  0  0  0  0  0  0  0  0
    0.1284   -0.6461    0.0000 N   0  0  0  0  0  0  0  0  0  0  0  0
   -1.8556   -1.4711    0.0000 N   0  0  0  0  0  0  0  0  0  0  0  0
   -0.1016    0.8060    0.0000 N   0  0  0  0  0  0  0  0  0  0  0  0
   -1.1411   -0.2336    0.0000 C   0  0  0  0  0  0  0  0  0  0  0  0
   -1.1411   -1.0586    0.0000 C   0  0  0  0  0  0  0  0  0  0  0  0
   -0.3565    0.0214    0.0000 C   0  0  0  0  0  0  0  0  0  0  0  0
   -2.5701   -0.2336    0.0000 C   0  0  0  0  0  0  0  0  0  0  0  0
   -2.5701   -1.0586    0.0000 C   0  0  0  0  0  0  0  0  0  0  0  0
   -1.8556    0.1789    0.0000 C   0  0  0  0  0  0  0  0  0  0  0  0
   -0.1016   -2.0981    0.0000 C   0  0  0  0  0  0  0  0  0  0  0  0
    0.7054    0.9775    0.0000 C   0  0  0  0  0  0  0  0  0  0  0  0
   -3.2846    0.1789    0.0000 C   0  0  0  0  0  0  0  0  0  0  0  0
   -3.2846   -1.4711    0.0000 C   0  0  0  0  0  0  0  0  0  0  0  0
    0.9603    1.7621    0.0000 C   0  0  0  0  0  0  0  0  0  0  0  0
    0.7054   -2.2697    0.0000 C   0  0  0  0  0  0  0  0  0  0  0  0
   -3.9990   -0.2336    0.0000 C   0  0  0  0  0  0  0  0  0  0  0  0
   -3.9990   -1.0586    0.0000 C   0  0  0  0  0  0  0  0  0  0  0  0
    1.2153    2.5468    0.0000 C   0  0  0  0  0  0  0  0  0  0  0  0
    1.7449    1.5072    0.0000 C   0  0  0  0  0  0  0  0  0  0  0  0
    0.1757    2.0171    0.0000 C   0  0  0  0  0  0  0  0  0  0  0  0
    1.2574   -1.6566    0.0000 C   0  0  0  0  0  0  0  0  0  0  0  0
    0.9603   -3.0543    0.0000 C   0  0  0  0  0  0  0  0  0  0  0  0
  1 13  2  0
  2  3  1  0
  2  7  1  0
  2 12  1  0
  3  8  2  0
  4  7  2  0
  4 10  1  0
  5  8  1  0
  5 13  1  0
  6  7  1  0
  6  8  1  0
  6 11  2  0
  9 10  1  0
  9 11  1  0
  9 14  2  0
 10 15  2  0
 12 17  1  0
 13 16  1  0
 14 18  1  0
 15 19  1  0
 16 20  1  0
 16 21  1  0
 16 22  1  0
 17 23  1  0
 17 24  1  0
 18 19  2  0
M  END

> <chembl_id>
CHEMBL1380694

> <chembl_pref_name>
None

$$$$

     RDKit          2D

 41 44  0  0  0  0  0  0  0  0999 V2000
    8.5772  -13.6931    0.0000 C   0  0  0  0  0  0  0  0  0  0  0  0
    7.7540  -13.6958    0.0000 C   0  0  0  0  0  0  0  0  0  0  0  0
    7.3465  -14.4089    0.0000 C   0  0  0  0  0  0  0  0  0  0  0  0
    7.7611  -15.1198    0.0000 C   0  0  0  0  0  0  0  0  0  0  0  0
    8.5874  -15.1132    0.0000 C   0  0  0  0  0  0  0  0  0  0  0  0
    8.9912  -14.3995    0.0000 C   0  0  0  0  0  0  0  0  0  0  0  0
    8.9863  -12.9766    0.0000 C   0  0  0  0  0  0  0  0  0  0  0  0
    4.3342  -10.9357    0.0000 C   0  0  0  0  0  0  0  0  0  0  0  0
    4.0875  -11.7291    0.0000 C   0  0  0  0  0  0  0  0  0  0  0  0
    4.7657  -12.2058    0.0000 N   0  0  0  0  0  0  0  0  0  0  0  0
    5.4293  -11.7087    0.0000 C   0  0  0  0  0  0  0  0  0  0  0  0
    5.1617  -10.9236    0.0000 S   0  0  0  0  0  0  0  0  0  0  0  0
    6.1398  -12.1280    0.0000 C   0  0  0  0  0  0  0  0  0  0  0  0
    6.8582  -11.7223    0.0000 O   0  0  0  0  0  0  0  0  0  0  0  0
    7.5687  -12.1416    0.0000 C   0  0  0  0  0  0  0  0  0  0  0  0
    8.2871  -11.7359    0.0000 N   0  0  0  0  0  0  0  0  0  0  0  0
    7.5609  -12.9665    0.0000 O   0  0  0  0  0  0  0  0  0  0  0  0
    8.9976  -12.1552    0.0000 C   0  0  0  0  0  0  0  0  0  0  0  0
    9.7159  -11.7495    0.0000 C   0  0  0  0  0  0  0  0  0  0  0  0
   10.4264  -12.1687    0.0000 N   0  0  0  0  0  0  0  0  0  0  0  0
   11.1448  -11.7630    0.0000 C   0  0  0  0  0  0  0  0  0  0  0  0
   11.8553  -12.1823    0.0000 C   0  0  0  0  0  0  0  0  0  0  0  0
   12.5737  -11.7766    0.0000 N   0  0  0  0  0  0  0  0  0  0  0  0
   11.8475  -13.0073    0.0000 C   0  0  0  0  0  0  0  0  0  0  0  0
   12.2604  -13.7175    0.0000 C   0  0  0  0  0  0  0  0  0  0  0  0
   13.2842  -12.1959    0.0000 C   0  0  0  0  0  0  0  0  0  0  0  0
   14.0026  -11.7902    0.0000 O   0  0  0  0  0  0  0  0  0  0  0  0
   13.2764  -13.0208    0.0000 O   0  0  0  0  0  0  0  0  0  0  0  0
   14.7131  -12.2095    0.0000 C   0  0  0  0  0  0  0  0  0  0  0  0
   15.4314  -11.8038    0.0000 C   0  0  0  0  0  0  0  0  0  0  0  0
   16.2229  -12.0290    0.0000 C   0  0  0  0  0  0  0  0  0  0  0  0
   16.6829  -11.3441    0.0000 N   0  0  0  0  0  0  0  0  0  0  0  0
   16.1737  -10.6949    0.0000 C   0  0  0  0  0  0  0  0  0  0  0  0
   15.3990  -10.9787    0.0000 S   0  0  0  0  0  0  0  0  0  0  0  0
   11.8443  -14.4306    0.0000 C   0  0  0  0  0  0  0  0  0  0  0  0
   12.2551  -15.1451    0.0000 C   0  0  0  0  0  0  0  0  0  0  0  0
   13.0810  -15.1467    0.0000 C   0  0  0  0  0  0  0  0  0  0  0  0
   13.4943  -14.4278    0.0000 C   0  0  0  0  0  0  0  0  0  0  0  0
   13.0811  -13.7162    0.0000 C   0  0  0  0  0  0  0  0  0  0  0  0
   10.4186  -12.9937    0.0000 C   0  0  0  0  0  0  0  0  0  0  0  0
    9.7003  -13.3994    0.0000 C   0  0  0  0  0  0  0  0  0  0  0  0
 19 20  1  0
  5  6  2  0
 20 21  1  0
  8  9  2  0
 21 22  1  0
 10 11  2  0
 22 23  1  0
 11 12  1  0
 22 24  1  1
 12  8  1  0
 24 25  1  0
  6  1  1  0
 23 26  1  0
 11 13  1  0
 26 27  1  0
  1  2  2  0
 26 28  2  0
 13 14  1  0
 27 29  1  0
  1  7  1  0
 29 30  1  0
 30 31  2  0
 14 15  1  0
  9 10  1  0
 15 16  1  0
  3  4  2  0
 31 32  1  0
 32 33  2  0
 33 34  1  0
 34 30  1  0
 15 17  2  0
 25 35  2  0
 35 36  1  0
 16 18  1  0
 36 37  2  0
  4  5  1  0
 37 38  1  0
 18 19  1  0
 38 39  2  0
 39 25  1  0
 18  7  1  6
 20 40  1  0
  2  3  1  0
 40 41  1  0
M  END

> <chembl_id>
CHEMBL1080964

> <chembl_pref_name>
None

$$$$

     RDKit          2D

 25 25  0  0  0  0  0  0  0  0999 V2000
    7.9830    0.7145    0.0000 O   0  0  0  0  0  0  0  0  0  0  0  0
    6.3330   -0.7145    0.0000 O   0  0  0  0  0  0  0  0  0  0  0  0
    7.9830   -0.7145    0.0000 O   0  0  0  0  0  0  0  0  0  0  0  0
    6.3330    0.7145    0.0000 O   0  0  0  0  0  0  0  0  0  0  0  0
    7.5705    0.0000    0.0000 C   0  0  0  0  0  0  0  0  0  0  0  0
    6.7455    0.0000    0.0000 C   0  0  0  0  0  0  0  0  0  0  0  0
   -2.9331   -1.6934    0.0000 Br  0  0  0  0  0  0  0  0  0  0  0  0
   -1.5041    0.7816    0.0000 O   0  0  0  0  0  0  0  0  0  0  0  0
    2.0682    0.3691    0.0000 N   0  0  0  0  0  0  0  0  0  0  0  0
   -2.2186    0.3691    0.0000 C   0  0  0  0  0  0  0  0  0  0  0  0
   -2.9331   -0.8684    0.0000 C   0  0  0  0  0  0  0  0  0  0  0  0
   -2.2186   -0.4559    0.0000 C   0  0  0  0  0  0  0  0  0  0  0  0
   -2.9331    0.7816    0.0000 C   0  0  0  0  0  0  0  0  0  0  0  0
   -3.6476   -0.4559    0.0000 C   0  0  0  0  0  0  0  0  0  0  0  0
   -3.6476    0.3691    0.0000 C   0  0  0  0  0  0  0  0  0  0  0  0
    3.4971   -0.4559    0.0000 C   0  0  0  0  0  0  0  0  0  0  0  0
    2.7827    0.7816    0.0000 C   0  0  0  0  0  0  0  0  0  0  0  0
    2.0682   -0.4559    0.0000 C   0  0  0  0  0  0  0  0  0  0  0  0
    1.3537    0.7816    0.0000 C   0  0  0  0  0  0  0  0  0  0  0  0
    3.4971    0.3691    0.0000 C   0  0  0  0  0  0  0  0  0  0  0  0
    2.7827   -0.8684    0.0000 C   0  0  0  0  0  0  0  0  0  0  0  0
   -0.7897    0.3691    0.0000 C   0  0  0  0  0  0  0  0  0  0  0  0
    0.6393    0.3691    0.0000 C   0  0  0  0  0  0  0  0  0  0  0  0
   -0.0752    0.7816    0.0000 C   0  0  0  0  0  0  0  0  0  0  0  0
    4.2116   -0.8684    0.0000 C   0  0  0  0  0  0  0  0  0  0  0  0
  1  5  2  0
  2  6  2  0
  3  5  1  0
  4  6  1  0
  5  6  1  0
  7 11  1  0
  8 10  1  0
  8 22  1  0
  9 17  1  0
  9 18  1  0
  9 19  1  0
 10 12  1  0
 10 13  2  0
 11 12  2  0
 11 14  1  0
 13 15  1  0
 14 15  2  0
 16 20  1  0
 16 21  1  0
 16 25  1  0
 17 20  1  0
 18 21  1  0
 19 23  1  0
 22 24  1  0
 23 24  1  0
M  END

> <chembl_id>
CHEMBL1440694

> <chembl_pref_name>
None

$$$$

     RDKit          2D

 22 22  0  0  0  0  0  0  0  0999 V2000
    0.7460    1.4966    0.0000 F   0  0  0  0  0  0  0  0  0  0  0  0
    1.7450    0.8940    0.0000 F   0  0  0  0  0  0  0  0  0  0  0  0
    0.1433    0.4976    0.0000 F   0  0  0  0  0  0  0  0  0  0  0  0
    1.3405   -0.9059    0.0000 O   0  0  0  0  0  0  0  0  0  0  0  0
   -0.2305    0.2913    0.0000 O   0  0  0  0  0  0  0  0  0  0  0  0
    0.1127   -1.0958    0.0000 O   0  0  0  0  0  0  0  0  0  0  0  0
    2.2864   -1.2940    0.0000 O   0  0  0  0  0  0  0  0  0  0  0  0
    4.9178    0.0931    0.0000 O   0  0  0  0  0  0  0  0  0  0  0  0
    3.3161   -0.3032    0.0000 N   0  0  0  0  0  0  0  0  0  0  0  0
    1.1423   -0.1051    0.0000 C   0  0  0  0  0  0  0  0  0  0  0  0
    0.9442    0.6958    0.0000 C   0  0  0  0  0  0  0  0  0  0  0  0
    0.3415   -0.3032    0.0000 C   0  0  0  0  0  0  0  0  0  0  0  0
    1.9432    0.0931    0.0000 C   0  0  0  0  0  0  0  0  0  0  0  0
    2.5152   -0.5014    0.0000 C   0  0  0  0  0  0  0  0  0  0  0  0
    3.8881   -0.8977    0.0000 C   0  0  0  0  0  0  0  0  0  0  0  0
    4.6890   -0.6995    0.0000 C   0  0  0  0  0  0  0  0  0  0  0  0
    3.6593   -1.6903    0.0000 C   0  0  0  0  0  0  0  0  0  0  0  0
    5.2610   -1.2940    0.0000 C   0  0  0  0  0  0  0  0  0  0  0  0
   -1.0314    0.0931    0.0000 C   0  0  0  0  0  0  0  0  0  0  0  0
    4.2313   -2.2848    0.0000 C   0  0  0  0  0  0  0  0  0  0  0  0
    5.0322   -2.0866    0.0000 C   0  0  0  0  0  0  0  0  0  0  0  0
    5.7186    0.2913    0.0000 C   0  0  0  0  0  0  0  0  0  0  0  0
  1 11  1  0
  2 11  1  0
  3 11  1  0
  4 10  1  0
  5 12  1  0
  5 19  1  0
  6 12  2  0
  7 14  2  0
  8 16  1  0
  8 22  1  0
  9 14  1  0
  9 15  1  0
 10 11  1  0
 10 12  1  0
 10 13  1  0
 13 14  1  0
 15 16  1  0
 15 17  2  0
 16 18  2  0
 17 20  1  0
 18 21  1  0
 20 21  2  0
M  END

> <chembl_id>
CHEMBL1406494

> <chembl_pref_name>
None

$$$$

     RDKit          2D

 20 22  0  0  0  0  0  0  0  0999 V2000
   12.1337   -6.4326    0.0000 C   0  0  0  0  0  0  0  0  0  0  0  0
   12.1325   -7.2609    0.0000 C   0  0  0  0  0  0  0  0  0  0  0  0
   12.8483   -7.6743    0.0000 C   0  0  0  0  0  0  0  0  0  0  0  0
   12.8465   -6.0193    0.0000 C   0  0  0  0  0  0  0  0  0  0  0  0
   13.5626   -6.4289    0.0000 C   0  0  0  0  0  0  0  0  0  0  0  0
   13.5615   -7.2584    0.0000 C   0  0  0  0  0  0  0  0  0  0  0  0
   14.2753   -7.6719    0.0000 C   0  0  0  0  0  0  0  0  0  0  0  0
   14.9948   -7.2604    0.0000 N   0  0  0  0  0  0  0  0  0  0  0  0
   14.9960   -6.4309    0.0000 C   0  0  0  0  0  0  0  0  0  0  0  0
   14.2777   -6.0129    0.0000 C   0  0  0  0  0  0  0  0  0  0  0  0
   14.2716   -8.4947    0.0000 C   0  0  0  0  0  0  0  0  0  0  0  0
   14.9835   -8.9068    0.0000 C   0  0  0  0  0  0  0  0  0  0  0  0
   11.4167   -6.0155    0.0000 O   0  0  0  0  0  0  0  0  0  0  0  0
   10.7015   -6.4287    0.0000 C   0  0  0  0  0  0  0  0  0  0  0  0
   11.4169   -7.6734    0.0000 Cl  0  0  0  0  0  0  0  0  0  0  0  0
   14.9806   -9.7300    0.0000 C   0  0  0  0  0  0  0  0  0  0  0  0
   15.6917  -10.1421    0.0000 C   0  0  0  0  0  0  0  0  0  0  0  0
   16.4056   -9.7315    0.0000 C   0  0  0  0  0  0  0  0  0  0  0  0
   16.4039   -8.9047    0.0000 C   0  0  0  0  0  0  0  0  0  0  0  0
   15.6922   -8.4963    0.0000 C   0  0  0  0  0  0  0  0  0  0  0  0
  8  9  1  0
  9 10  1  0
  5  6  1  0
 12 11  1  0
  7 11  1  0
  2  3  1  0
  3  6  2  0
 13 14  1  0
  1 13  1  0
  1  2  2  0
  2 15  1  0
  5  4  2  0
 12 16  2  0
  4  1  1  0
 16 17  1  0
  5 10  1  0
 17 18  2  0
  6  7  1  0
 18 19  1  0
  7  8  2  0
 19 20  2  0
 20 12  1  0
M  END

> <chembl_id>
CHEMBL1087694

> <chembl_pref_name>
None

$$$$

     RDKit          2D

 38 42  0  0  0  0  0  0  0  0999 V2000
   -0.5887    0.7975    0.0000 S   0  0  0  0  0  0  0  0  0  0  0  0
   -2.0176   -0.8525    0.0000 O   0  0  0  0  0  0  0  0  0  0  0  0
    2.9837   -0.4400    0.0000 O   0  0  0  0  0  0  0  0  0  0  0  0
   -3.4466    3.2725    0.0000 O   0  0  0  0  0  0  0  0  0  0  0  0
   -2.0176    4.0975    0.0000 O   0  0  0  0  0  0  0  0  0  0  0  0
   -0.5887   -0.8525    0.0000 N   0  0  0  0  0  0  0  0  0  0  0  0
    2.2692   -1.6775    0.0000 N   0  0  0  0  0  0  0  0  0  0  0  0
    2.2692   -3.3275    0.0000 N   0  0  0  0  0  0  0  0  0  0  0  0
    0.1258   -0.4400    0.0000 C   0  0  0  0  0  0  0  0  0  0  0  0
    0.1258    0.3850    0.0000 C   0  0  0  0  0  0  0  0  0  0  0  0
   -1.3031    0.3850    0.0000 C   0  0  0  0  0  0  0  0  0  0  0  0
   -1.3031   -0.4400    0.0000 C   0  0  0  0  0  0  0  0  0  0  0  0
    1.5547   -0.4400    0.0000 C   0  0  0  0  0  0  0  0  0  0  0  0
    0.8403   -0.8525    0.0000 C   0  0  0  0  0  0  0  0  0  0  0  0
    0.8403    0.7975    0.0000 C   0  0  0  0  0  0  0  0  0  0  0  0
    2.2692   -0.8525    0.0000 C   0  0  0  0  0  0  0  0  0  0  0  0
    1.5547    0.3850    0.0000 C   0  0  0  0  0  0  0  0  0  0  0  0
   -2.0176    0.7975    0.0000 C   0  0  0  0  0  0  0  0  0  0  0  0
   -2.0176    1.6225    0.0000 C   0  0  0  0  0  0  0  0  0  0  0  0
   -0.5887   -1.6775    0.0000 C   0  0  0  0  0  0  0  0  0  0  0  0
   -2.7321    2.0350    0.0000 C   0  0  0  0  0  0  0  0  0  0  0  0
   -2.7321    2.8600    0.0000 C   0  0  0  0  0  0  0  0  0  0  0  0
    2.9837   -2.0900    0.0000 C   0  0  0  0  0  0  0  0  0  0  0  0
    1.5547   -2.0900    0.0000 C   0  0  0  0  0  0  0  0  0  0  0  0
   -1.3031    2.0350    0.0000 C   0  0  0  0  0  0  0  0  0  0  0  0
   -2.0176    3.2725    0.0000 C   0  0  0  0  0  0  0  0  0  0  0  0
   -1.3031    2.8600    0.0000 C   0  0  0  0  0  0  0  0  0  0  0  0
    2.9837   -2.9150    0.0000 C   0  0  0  0  0  0  0  0  0  0  0  0
    1.5547   -2.9150    0.0000 C   0  0  0  0  0  0  0  0  0  0  0  0
    2.2692   -4.1525    0.0000 C   0  0  0  0  0  0  0  0  0  0  0  0
    1.5547   -4.5650    0.0000 C   0  0  0  0  0  0  0  0  0  0  0  0
    1.5547   -5.3900    0.0000 C   0  0  0  0  0  0  0  0  0  0  0  0
    0.8403   -4.1525    0.0000 C   0  0  0  0  0  0  0  0  0  0  0  0
   -3.4466    4.0975    0.0000 C   0  0  0  0  0  0  0  0  0  0  0  0
   -1.3031    4.5100    0.0000 C   0  0  0  0  0  0  0  0  0  0  0  0
    0.8403   -5.8025    0.0000 C   0  0  0  0  0  0  0  0  0  0  0  0
    0.1258   -4.5650    0.0000 C   0  0  0  0  0  0  0  0  0  0  0  0
    0.1258   -5.3900    0.0000 C   0  0  0  0  0  0  0  0  0  0  0  0
  1 10  1  0
  1 11  1  0
  2 12  2  0
  3 16  2  0
  4 22  1  0
  4 34  1  0
  5 26  1  0
  5 35  1  0
  6  9  1  0
  6 12  1  0
  6 20  1  0
  7 16  1  0
  7 23  1  0
  7 24  1  0
  8 28  1  0
  8 29  1  0
  8 30  1  0
  9 10  1  0
  9 14  2  0
 10 15  2  0
 11 12  1  0
 11 18  2  0
 13 14  1  0
 13 16  1  0
 13 17  2  0
 15 17  1  0
 18 19  1  0
 19 21  1  0
 19 25  2  0
 21 22  2  0
 22 26  1  0
 23 28  1  0
 24 29  1  0
 25 27  1  0
 26 27  2  0
 30 31  1  0
 31 32  2  0
 31 33  1  0
 32 36  1  0
 33 37  2  0
 36 38  2  0
 37 38  1  0
M  END

> <chembl_id>
CHEMBL1604094

> <chembl_pref_name>
None

$$$$

     RDKit          2D

 35 38  0  0  0  0  0  0  0  0999 V2000
   -4.3171    3.3028    0.0000 S   0  0  0  0  0  0  0  0  0  0  0  0
   -7.3495    3.9232    0.0000 S   0  0  0  0  0  0  0  0  0  0  0  0
   -4.0200    6.0354    0.0000 O   0  0  0  0  0  0  0  0  0  0  0  0
   -0.6746    3.5578    0.0000 O   0  0  0  0  0  0  0  0  0  0  0  0
   -6.9930    5.9369    0.0000 O   0  0  0  0  0  0  0  0  0  0  0  0
   -1.3891    2.3203    0.0000 O   0  0  0  0  0  0  0  0  0  0  0  0
   -4.7848    8.3893    0.0000 O   0  0  0  0  0  0  0  0  0  0  0  0
   -2.1036    3.5578    0.0000 N   0  0  0  0  0  0  0  0  0  0  0  0
   -5.6270    3.9703    0.0000 N   0  0  0  0  0  0  0  0  0  0  0  0
   -5.3790    5.5939    0.0000 N   0  0  0  0  0  0  0  0  0  0  0  0
   -4.3171    4.6377    0.0000 C   0  0  0  0  0  0  0  0  0  0  0  0
   -3.5325    4.3828    0.0000 C   0  0  0  0  0  0  0  0  0  0  0  0
   -3.5325    3.5578    0.0000 C   0  0  0  0  0  0  0  0  0  0  0  0
   -4.8020    3.9703    0.0000 C   0  0  0  0  0  0  0  0  0  0  0  0
   -4.5721    5.4223    0.0000 C   0  0  0  0  0  0  0  0  0  0  0  0
   -2.8180    3.1453    0.0000 C   0  0  0  0  0  0  0  0  0  0  0  0
   -2.8180    4.7953    0.0000 C   0  0  0  0  0  0  0  0  0  0  0  0
   -2.1036    4.3828    0.0000 C   0  0  0  0  0  0  0  0  0  0  0  0
   -5.6340    6.3785    0.0000 C   0  0  0  0  0  0  0  0  0  0  0  0
   -1.3891    3.1453    0.0000 C   0  0  0  0  0  0  0  0  0  0  0  0
   -6.0395    3.2558    0.0000 C   0  0  0  0  0  0  0  0  0  0  0  0
   -6.4409    6.5500    0.0000 C   0  0  0  0  0  0  0  0  0  0  0  0
   -6.8645    3.2558    0.0000 C   0  0  0  0  0  0  0  0  0  0  0  0
   -5.0819    6.9916    0.0000 C   0  0  0  0  0  0  0  0  0  0  0  0
   -5.3369    7.7762    0.0000 C   0  0  0  0  0  0  0  0  0  0  0  0
   -6.6959    7.3346    0.0000 C   0  0  0  0  0  0  0  0  0  0  0  0
   -7.3495    2.5884    0.0000 C   0  0  0  0  0  0  0  0  0  0  0  0
   -6.1438    7.9477    0.0000 C   0  0  0  0  0  0  0  0  0  0  0  0
   -8.1341    2.8433    0.0000 C   0  0  0  0  0  0  0  0  0  0  0  0
   -8.1341    3.6683    0.0000 C   0  0  0  0  0  0  0  0  0  0  0  0
    0.0399    3.1453    0.0000 C   0  0  0  0  0  0  0  0  0  0  0  0
   -7.0945    1.8037    0.0000 C   0  0  0  0  0  0  0  0  0  0  0  0
   -7.7999    6.1084    0.0000 C   0  0  0  0  0  0  0  0  0  0  0  0
   -5.0398    9.1739    0.0000 C   0  0  0  0  0  0  0  0  0  0  0  0
    0.7543    3.5578    0.0000 C   0  0  0  0  0  0  0  0  0  0  0  0
  1 13  1  0
  1 14  1  0
  2 23  1  0
  2 30  1  0
  3 15  2  0
  4 20  1  0
  4 31  1  0
  5 22  1  0
  5 33  1  0
  6 20  2  0
  7 25  1  0
  7 34  1  0
  8 16  1  0
  8 18  1  0
  8 20  1  0
  9 14  1  0
  9 21  1  0
 10 15  1  0
 10 19  1  0
 11 12  1  0
 11 14  2  0
 11 15  1  0
 12 13  2  0
 12 17  1  0
 13 16  1  0
 17 18  1  0
 19 22  1  0
 19 24  2  0
 21 23  1  0
 22 26  2  0
 23 27  2  0
 24 25  1  0
 25 28  2  0
 26 28  1  0
 27 29  1  0
 27 32  1  0
 29 30  2  0
 31 35  1  0
M  END

> <chembl_id>
CHEMBL1400624

> <chembl_pref_name>
None

$$$$

     RDKit          2D

 13 14  0  0  0  0  0  0  0  0999 V2000
    4.1955    0.2934    0.0000 C   0  0  0  0  0  0  0  0  0  0  0  0
    3.9511   -0.8815    0.0000 C   0  0  0  0  0  0  0  0  0  0  0  0
    4.9531   -1.9978    0.0000 N   0  0  0  0  0  0  0  0  0  0  0  0
    4.2010   -3.2956    0.0000 N   0  0  0  0  0  0  0  0  0  0  0  0
    4.6873   -4.3927    0.0000 O   0  0  0  0  0  0  0  0  0  0  0  0
    2.7343   -2.9815    0.0000 C   0  0  0  0  0  0  0  0  0  0  0  0
    2.5987   -1.5004    0.0000 C   0  0  0  0  0  0  0  0  0  0  0  0
    1.2990   -0.7500    0.0000 C   0  0  0  0  0  0  0  0  0  0  0  0
    1.2990    0.7500    0.0000 C   0  0  0  0  0  0  0  0  0  0  0  0
    0.0000    1.5000    0.0000 C   0  0  0  0  0  0  0  0  0  0  0  0
   -1.2990    0.7500    0.0000 N   0  0  0  0  0  0  0  0  0  0  0  0
   -1.2990   -0.7500    0.0000 C   0  0  0  0  0  0  0  0  0  0  0  0
    0.0000   -1.5000    0.0000 C   0  0  0  0  0  0  0  0  0  0  0  0
  1  2  1  0
  2  3  2  0
  3  4  1  0
  4  5  1  0
  4  6  1  0
  6  7  2  0
  7  2  1  0
  7  8  1  0
  8  9  1  0
  9 10  1  0
 10 11  1  0
 11 12  1  0
 12 13  1  0
 13  8  1  0
M  END

> <chembl_id>
CHEMBL1090691

> <chembl_pref_name>
None

$$$$

     RDKit          2D

 18 19  0  0  0  0  0  0  0  0999 V2000
   -2.9249   -3.2624    0.0000 Cl  0  0  0  0  0  0  0  0  0  0  0  0
   -0.7815    0.4501    0.0000 Cl  0  0  0  0  0  0  0  0  0  0  0  0
   -0.7815   -2.0249    0.0000 O   0  0  0  0  0  0  0  0  0  0  0  0
   -2.2105   -2.0249    0.0000 O   0  0  0  0  0  0  0  0  0  0  0  0
   -2.2105   -4.4999    0.0000 N   0  0  0  0  0  0  0  0  0  0  0  0
   -1.4960   -3.2624    0.0000 C   0  0  0  0  0  0  0  0  0  0  0  0
   -1.4960   -2.4374    0.0000 C   0  0  0  0  0  0  0  0  0  0  0  0
   -2.2105   -3.6749    0.0000 C   0  0  0  0  0  0  0  0  0  0  0  0
   -0.0671   -0.7874    0.0000 C   0  0  0  0  0  0  0  0  0  0  0  0
   -0.7815   -3.6749    0.0000 C   0  0  0  0  0  0  0  0  0  0  0  0
   -0.0671    0.0376    0.0000 C   0  0  0  0  0  0  0  0  0  0  0  0
   -0.7815   -1.1999    0.0000 C   0  0  0  0  0  0  0  0  0  0  0  0
   -0.7815   -4.4999    0.0000 C   0  0  0  0  0  0  0  0  0  0  0  0
    0.6474   -1.1999    0.0000 C   0  0  0  0  0  0  0  0  0  0  0  0
   -1.4960   -4.9124    0.0000 C   0  0  0  0  0  0  0  0  0  0  0  0
    0.6474    0.4501    0.0000 C   0  0  0  0  0  0  0  0  0  0  0  0
    1.3619   -0.7874    0.0000 C   0  0  0  0  0  0  0  0  0  0  0  0
    1.3619    0.0376    0.0000 C   0  0  0  0  0  0  0  0  0  0  0  0
  1  8  1  0
  2 11  1  0
  3  7  1  0
  3 12  1  0
  4  7  2  0
  5  8  2  0
  5 15  1  0
  6  7  1  0
  6  8  1  0
  6 10  2  0
  9 11  1  0
  9 12  1  0
  9 14  2  0
 10 13  1  0
 11 16  2  0
 13 15  2  0
 14 17  1  0
 16 18  1  0
 17 18  2  0
M  END

> <chembl_id>
CHEMBL1500694

> <chembl_pref_name>
None

$$$$

     RDKit          2D

 24 26  0  0  0  0  0  0  0  0999 V2000
   -0.7385    2.5453    0.0000 O   0  0  0  0  0  0  0  0  0  0  0  0
    0.6905    0.0703    0.0000 O   0  0  0  0  0  0  0  0  0  0  0  0
   -0.3260   -1.1993    0.0000 N   0  0  0  0  0  0  0  0  0  0  0  0
   -1.1510   -1.1993    0.0000 N   0  0  0  0  0  0  0  0  0  0  0  0
   -2.1674    2.5453    0.0000 N   0  0  0  0  0  0  0  0  0  0  0  0
   -2.8819    0.4828    0.0000 N   0  0  0  0  0  0  0  0  0  0  0  0
   -0.7385    0.8953    0.0000 C   0  0  0  0  0  0  0  0  0  0  0  0
   -0.0240    1.3078    0.0000 C   0  0  0  0  0  0  0  0  0  0  0  0
   -0.7385    0.0703    0.0000 C   0  0  0  0  0  0  0  0  0  0  0  0
   -0.0240    2.1328    0.0000 C   0  0  0  0  0  0  0  0  0  0  0  0
   -1.4529    1.3078    0.0000 C   0  0  0  0  0  0  0  0  0  0  0  0
    0.6905    0.8953    0.0000 C   0  0  0  0  0  0  0  0  0  0  0  0
   -0.0710   -0.4147    0.0000 C   0  0  0  0  0  0  0  0  0  0  0  0
   -1.4529    2.1328    0.0000 C   0  0  0  0  0  0  0  0  0  0  0  0
   -1.4059   -0.4147    0.0000 C   0  0  0  0  0  0  0  0  0  0  0  0
    1.4049    2.1328    0.0000 C   0  0  0  0  0  0  0  0  0  0  0  0
    0.6905    2.5453    0.0000 C   0  0  0  0  0  0  0  0  0  0  0  0
    1.4049    1.3078    0.0000 C   0  0  0  0  0  0  0  0  0  0  0  0
   -2.1674    0.8953    0.0000 C   0  0  0  0  0  0  0  0  0  0  0  0
    0.7540   -0.4147    0.0000 C   0  0  0  0  0  0  0  0  0  0  0  0
   -2.1905   -0.1597    0.0000 C   0  0  0  0  0  0  0  0  0  0  0  0
    2.2294    2.1615    0.0000 C   0  0  0  0  0  0  0  0  0  0  0  0
    1.8421    2.8324    0.0000 C   0  0  0  0  0  0  0  0  0  0  0  0
    0.1590   -1.8667    0.0000 C   0  0  0  0  0  0  0  0  0  0  0  0
  1 10  1  0
  1 14  1  0
  2 12  2  0
  3  4  1  0
  3 13  1  0
  3 24  1  0
  4 15  2  0
  5 14  1  0
  6 19  3  0
  7  8  1  0
  7  9  1  0
  7 11  1  0
  8 10  2  0
  8 12  1  0
  9 13  2  0
  9 15  1  0
 10 17  1  0
 11 14  2  0
 11 19  1  0
 12 18  1  0
 13 20  1  0
 15 21  1  0
 16 17  1  0
 16 18  1  0
 16 22  1  0
 16 23  1  0
M  END

> <chembl_id>
CHEMBL1543694

> <chembl_pref_name>
None

$$$$

     RDKit          2D

 14 15  0  0  0  0  0  0  0  0999 V2000
   -4.4317    1.7297    0.0000 C   0  0  0  0  0  0  0  0  0  0  0  0
   -4.4328    0.8585    0.0000 C   0  0  0  0  0  0  0  0  0  0  0  0
   -3.7330    0.4216    0.0000 C   0  0  0  0  0  0  0  0  0  0  0  0
   -3.0315    0.8589    0.0000 C   0  0  0  0  0  0  0  0  0  0  0  0
   -3.0343    1.7333    0.0000 C   0  0  0  0  0  0  0  0  0  0  0  0
   -3.7348    2.1665    0.0000 C   0  0  0  0  0  0  0  0  0  0  0  0
   -2.3364    2.1765    0.0000 N   0  0  0  0  0  0  0  0  0  0  0  0
   -1.6356    1.7426    0.0000 C   0  0  0  0  0  0  0  0  0  0  0  0
   -1.6346    0.8710    0.0000 C   0  0  0  0  0  0  0  0  0  0  0  0
   -0.8638    0.6059    0.0000 C   0  0  0  0  0  0  0  0  0  0  0  0
   -0.3941    1.3133    0.0000 C   0  0  0  0  0  0  0  0  0  0  0  0
   -0.8761    2.0157    0.0000 O   0  0  0  0  0  0  0  0  0  0  0  0
    0.4137    1.3211    0.0000 O   0  0  0  0  0  0  0  0  0  0  0  0
   -5.1394    0.4672    0.0000 C   0  0  0  0  0  0  0  0  0  0  0  0
  5  7  1  0
  3  4  2  0
  7  8  2  0
  9 10  2  0
  4  5  1  0
  2  3  1  0
  5  6  2  0
  8  9  1  0
 10 11  1  0
 11 12  1  0
 12  8  1  0
  6  1  1  0
 11 13  2  0
  1  2  2  0
  2 14  1  0
M  END

> <chembl_id>
CHEMBL1078694

> <chembl_pref_name>
None

$$$$

     RDKit          2D

 73 75  0  0  0  0  0  0  0  0999 V2000
    1.6326  -25.9033    0.0000 C   0  0  0  0  0  0  0  0  0  0  0  0
    0.9186  -26.3167    0.0000 C   0  0  0  0  0  0  0  0  0  0  0  0
    2.3476  -26.3150    0.0000 O   0  0  0  0  0  0  0  0  0  0  0  0
    1.6316  -25.0783    0.0000 C   0  0  0  0  0  0  0  0  0  0  0  0
    0.9167  -24.6667    0.0000 N   0  0  0  0  0  0  0  0  0  0  0  0
   10.9212  -26.3047    0.0000 N   0  0  0  0  0  0  0  0  0  0  0  0
   10.9222  -27.1297    0.0000 C   0  0  0  0  0  0  0  0  0  0  0  0
   10.2082  -27.5430    0.0000 C   0  0  0  0  0  0  0  0  0  0  0  0
   11.6372  -27.5413    0.0000 C   0  0  0  0  0  0  0  0  0  0  0  0
   10.2092  -28.3680    0.0000 O   0  0  0  0  0  0  0  0  0  0  0  0
    9.4933  -27.1314    0.0000 N   0  0  0  0  0  0  0  0  0  0  0  0
    8.7793  -27.5448    0.0000 C   0  0  0  0  0  0  0  0  0  0  0  0
    8.0643  -27.1331    0.0000 C   0  0  0  0  0  0  0  0  0  0  0  0
    8.7803  -28.3698    0.0000 C   0  0  0  0  0  0  0  0  0  0  0  0
    8.0633  -26.3081    0.0000 O   0  0  0  0  0  0  0  0  0  0  0  0
    2.3456  -24.6650    0.0000 C   0  0  0  0  0  0  0  0  0  0  0  0
    2.3446  -23.8400    0.0000 O   0  0  0  0  0  0  0  0  0  0  0  0
    3.0606  -25.0766    0.0000 N   0  0  0  0  0  0  0  0  0  0  0  0
    3.7745  -24.6632    0.0000 C   0  0  0  0  0  0  0  0  0  0  0  0
    4.4895  -25.0749    0.0000 C   0  0  0  0  0  0  0  0  0  0  0  0
    3.7736  -23.8382    0.0000 C   0  0  0  0  0  0  0  0  0  0  0  0
    4.4905  -25.8999    0.0000 O   0  0  0  0  0  0  0  0  0  0  0  0
    5.2035  -24.6615    0.0000 N   0  0  0  0  0  0  0  0  0  0  0  0
    6.6324  -24.6598    0.0000 C   0  0  0  0  0  0  0  0  0  0  0  0
    7.3474  -25.0715    0.0000 N   0  0  0  0  0  0  0  0  0  0  0  0
    6.6314  -23.8348    0.0000 O   0  0  0  0  0  0  0  0  0  0  0  0
    8.0614  -24.6581    0.0000 C   0  0  0  0  0  0  0  0  0  0  0  0
    8.7763  -25.0698    0.0000 C   0  0  0  0  0  0  0  0  0  0  0  0
    8.0604  -23.8331    0.0000 C   0  0  0  0  0  0  0  0  0  0  0  0
    8.7773  -25.8948    0.0000 O   0  0  0  0  0  0  0  0  0  0  0  0
    9.4903  -24.6564    0.0000 N   0  0  0  0  0  0  0  0  0  0  0  0
   10.2053  -25.0680    0.0000 C   0  0  0  0  0  0  0  0  0  0  0  0
   10.9193  -24.6547    0.0000 C   0  0  0  0  0  0  0  0  0  0  0  0
   10.9183  -23.8297    0.0000 C   0  0  0  0  0  0  0  0  0  0  0  0
   10.2063  -25.8930    0.0000 C   0  0  0  0  0  0  0  0  0  0  0  0
    5.9185  -25.0732    0.0000 C   0  0  0  0  0  0  0  0  0  0  0  0
    9.4923  -26.3064    0.0000 O   0  0  0  0  0  0  0  0  0  0  0  0
    9.4953  -28.7814    0.0000 C   0  0  0  0  0  0  0  0  0  0  0  0
    7.3513  -28.3715    0.0000 C   0  0  0  0  0  0  0  0  0  0  0  0
    6.6374  -28.7848    0.0000 C   0  0  0  0  0  0  0  0  0  0  0  0
    8.0663  -28.7831    0.0000 C   0  0  0  0  0  0  0  0  0  0  0  0
    8.0673  -29.6081    0.0000 C   0  0  0  0  0  0  0  0  0  0  0  0
    6.6384  -29.6098    0.0000 O   0  0  0  0  0  0  0  0  0  0  0  0
    5.9224  -28.3732    0.0000 N   0  0  0  0  0  0  0  0  0  0  0  0
    5.9214  -27.5482    0.0000 C   0  0  0  0  0  0  0  0  0  0  0  0
    5.2065  -27.1365    0.0000 C   0  0  0  0  0  0  0  0  0  0  0  0
    4.4925  -27.5499    0.0000 O   0  0  0  0  0  0  0  0  0  0  0  0
    6.6354  -27.1348    0.0000 C   0  0  0  0  0  0  0  0  0  0  0  0
    7.3504  -27.5465    0.0000 N   0  0  0  0  0  0  0  0  0  0  0  0
    6.6344  -26.3098    0.0000 O   0  0  0  0  0  0  0  0  0  0  0  0
    7.4292  -26.9167    0.0000 C   0  0  0  0  0  0  0  0  0  0  0  0
    5.2055  -26.3115    0.0000 N   0  0  0  0  0  0  0  0  0  0  0  0
    5.9194  -25.8982    0.0000 C   0  0  0  0  0  0  0  0  0  0  0  0
    5.3292  -25.6542    0.0000 C   0  0  0  0  0  0  0  0  0  0  0  0
    5.9125  -24.2458    0.0000 H   0  0  0  0  0  0  0  0  0  0  0  0
    5.2042  -27.9542    0.0000 H   0  0  0  0  0  0  0  0  0  0  0  0
   12.3512  -27.1280    0.0000 C   0  0  0  0  0  0  0  0  0  0  0  0
   13.0661  -27.5396    0.0000 C   0  0  0  0  0  0  0  0  0  0  0  0
   12.3502  -26.3030    0.0000 C   0  0  0  0  0  0  0  0  0  0  0  0
    4.4875  -23.4249    0.0000 C   0  0  0  0  0  0  0  0  0  0  0  0
    9.4962  -29.6064    0.0000 N   0  0  0  0  0  0  0  0  0  0  0  0
    8.7823  -30.0198    0.0000 N   0  0  0  0  0  0  0  0  0  0  0  0
    4.4865  -22.5999    0.0000 N   0  0  0  0  0  0  0  0  0  0  0  0
   11.5833  -23.3446    0.0000 C   0  0  0  0  0  0  0  0  0  0  0  0
   11.3274  -22.5602    0.0000 N   0  0  0  0  0  0  0  0  0  0  0  0
   10.2485  -23.3462    0.0000 C   0  0  0  0  0  0  0  0  0  0  0  0
   10.5030  -22.5620    0.0000 C   0  0  0  0  0  0  0  0  0  0  0  0
    9.9516  -21.9517    0.0000 C   0  0  0  0  0  0  0  0  0  0  0  0
    9.1457  -22.1242    0.0000 C   0  0  0  0  0  0  0  0  0  0  0  0
    8.8941  -22.9126    0.0000 C   0  0  0  0  0  0  0  0  0  0  0  0
    9.4471  -23.5196    0.0000 C   0  0  0  0  0  0  0  0  0  0  0  0
    7.3454  -23.4215    0.0000 C   0  0  0  0  0  0  0  0  0  0  0  0
    7.3444  -22.5965    0.0000 N   0  0  0  0  0  0  0  0  0  0  0  0
 19 20  1  0
 14 38  1  0
  6  7  1  0
 49 39  1  0
 19 21  1  1
 39 40  1  0
 11 12  1  0
 39 41  1  1
 20 22  2  0
 41 42  1  0
  4  1  1  0
 40 43  2  0
 20 23  1  0
 40 44  1  0
 23 36  1  0
 44 45  1  0
 12 13  1  0
 45 46  1  0
 46 52  1  0
 36 24  1  0
 46 47  2  0
  7  8  1  0
 45 48  1  0
 24 25  1  0
 12 14  1  1
 48 50  1  6
 24 26  2  0
 48 51  1  0
 25 27  1  0
 52 53  1  0
 13 15  2  0
 36 54  1  0
 53 54  1  0
 16  4  1  0
  4  5  1  6
 27 28  1  0
 36 55  1  1
 13 49  1  0
 45 56  1  1
 27 29  1  1
  9 57  1  0
  7  9  1  1
 57 58  1  0
 28 30  2  0
 57 59  1  0
  1  3  1  6
 21 60  1  0
 28 31  1  0
 38 61  1  0
 16 17  2  0
 42 62  1  0
 31 32  1  0
 60 63  1  0
 34 64  2  0
  8 10  2  0
 32 33  1  6
 64 65  1  0
 65 67  1  0
 66 34  1  0
 16 18  1  0
 33 34  1  0
 66 67  2  0
  1  2  1  0
 67 68  1  0
 32 35  1  0
 68 69  2  0
 18 19  1  0
 69 70  1  0
  8 11  1  0
 70 71  2  0
 71 66  1  0
 35 37  2  0
 29 72  1  0
 35  6  1  0
 72 73  1  0
M  END

> <chembl_id>
CHEMBL1090964

> <chembl_pref_name>
None

$$$$

     RDKit          2D

 33 36  0  0  0  0  0  0  0  0999 V2000
   15.4792   -8.2750    0.0000 C   0  0  0  0  0  0  0  0  0  0  0  0
   15.4792   -9.1000    0.0000 C   0  0  0  0  0  0  0  0  0  0  0  0
   16.1912   -9.5083    0.0000 N   0  0  0  0  0  0  0  0  0  0  0  0
   16.9031   -9.0992    0.0000 C   0  0  0  0  0  0  0  0  0  0  0  0
   16.9029   -8.2764    0.0000 C   0  0  0  0  0  0  0  0  0  0  0  0
   16.1912   -7.8583    0.0000 C   0  0  0  0  0  0  0  0  0  0  0  0
   16.1912   -7.0333    0.0000 O   0  0  0  0  0  0  0  0  0  0  0  0
   17.6027   -7.8375    0.0000 C   0  0  0  0  0  0  0  0  0  0  0  0
   18.3329   -8.2236    0.0000 O   0  0  0  0  0  0  0  0  0  0  0  0
   17.5754   -7.0120    0.0000 O   0  0  0  0  0  0  0  0  0  0  0  0
   19.0315   -7.7848    0.0000 C   0  0  0  0  0  0  0  0  0  0  0  0
   19.7608   -8.1704    0.0000 C   0  0  0  0  0  0  0  0  0  0  0  0
   16.1912  -10.3333    0.0000 C   0  0  0  0  0  0  0  0  0  0  0  0
   15.4767  -10.7458    0.0000 C   0  0  0  0  0  0  0  0  0  0  0  0
   16.9057  -10.7458    0.0000 O   0  0  0  0  0  0  0  0  0  0  0  0
   15.4767  -11.5708    0.0000 N   0  0  0  0  0  0  0  0  0  0  0  0
   14.7618  -11.9844    0.0000 C   0  0  0  0  0  0  0  0  0  0  0  0
   14.7598  -12.8058    0.0000 C   0  0  0  0  0  0  0  0  0  0  0  0
   15.4724  -13.2222    0.0000 S   0  0  0  0  0  0  0  0  0  0  0  0
   16.1887  -12.8109    0.0000 C   0  0  0  0  0  0  0  0  0  0  0  0
   16.1924  -11.9833    0.0000 C   0  0  0  0  0  0  0  0  0  0  0  0
   14.7663   -9.5140    0.0000 C   0  0  0  0  0  0  0  0  0  0  0  0
   14.0509   -9.1008    0.0000 C   0  0  0  0  0  0  0  0  0  0  0  0
   13.3375   -9.5137    0.0000 C   0  0  0  0  0  0  0  0  0  0  0  0
   13.3383  -10.3396    0.0000 C   0  0  0  0  0  0  0  0  0  0  0  0
   14.0584  -10.7509    0.0000 C   0  0  0  0  0  0  0  0  0  0  0  0
   14.7688  -10.3356    0.0000 C   0  0  0  0  0  0  0  0  0  0  0  0
   17.6152   -9.5083    0.0000 C   0  0  0  0  0  0  0  0  0  0  0  0
   17.6132  -10.3344    0.0000 C   0  0  0  0  0  0  0  0  0  0  0  0
   18.3265  -10.7474    0.0000 C   0  0  0  0  0  0  0  0  0  0  0  0
   19.0423  -10.3355    0.0000 C   0  0  0  0  0  0  0  0  0  0  0  0
   19.0403   -9.5062    0.0000 C   0  0  0  0  0  0  0  0  0  0  0  0
   18.3265   -9.0969    0.0000 C   0  0  0  0  0  0  0  0  0  0  0  0
 16 17  1  0
  5  8  1  0
  1  6  1  0
  2  3  1  0
  8  9  1  0
  8 10  2  0
 16 21  1  0
 17 18  1  0
 18 19  1  0
 19 20  1  0
 20 21  1  0
  3  4  1  0
  9 11  1  0
 22 23  2  0
  4  5  1  0
 23 24  1  0
 11 12  1  0
 24 25  2  0
  5  6  2  0
 25 26  1  0
  3 13  1  0
 26 27  2  0
 27 22  1  0
  2 22  1  0
 13 14  1  0
 28 29  2  0
  6  7  1  0
 29 30  1  0
 13 15  1  0
 30 31  2  0
  1  2  1  0
 31 32  1  0
 14 16  1  0
 32 33  2  0
 33 28  1  0
  4 28  1  0
M  END

> <chembl_id>
CHEMBL1090695

> <chembl_pref_name>
None

$$$$

     RDKit          2D

136140  0  0  0  0  0  0  0  0999 V2000
    0.6592   -5.6029    0.0000 C   0  0  0  0  0  0  0  0  0  0  0  0
    1.4779   -5.6101    0.0000 O   0  0  0  0  0  0  0  0  0  0  0  0
   -0.7578   -5.5187    0.0000 C   0  0  0  0  0  0  0  0  0  0  0  0
   -1.4984   -5.8770    0.0000 C   0  0  0  0  0  0  0  0  0  0  0  0
   -2.1758   -5.4346    0.0000 O   0  0  0  0  0  0  0  0  0  0  0  0
    0.5866   -3.9367    0.0000 C   0  0  0  0  0  0  0  0  0  0  0  0
    0.9547   -4.7907    0.0000 C   0  0  0  0  0  0  0  0  0  0  0  0
    2.2793   -3.9157    0.0000 C   0  0  0  0  0  0  0  0  0  0  0  0
    1.2954   -0.8909    0.0000 C   0  0  0  0  0  0  0  0  0  0  0  0
    0.1916    0.5436    0.0000 C   0  0  0  0  0  0  0  0  0  0  0  0
   -0.2550    1.2375    0.0000 C   0  0  0  0  0  0  0  0  0  0  0  0
    1.0068    0.5791    0.0000 O   0  0  0  0  0  0  0  0  0  0  0  0
   -1.0172    2.4390    0.0000 C   0  0  0  0  0  0  0  0  0  0  0  0
   -1.7416    2.8160    0.0000 C   0  0  0  0  0  0  0  0  0  0  0  0
   -0.3145    2.8701    0.0000 O   0  0  0  0  0  0  0  0  0  0  0  0
   -2.9934    3.4789    0.0000 C   0  0  0  0  0  0  0  0  0  0  0  0
   -3.8150    3.4438    0.0000 C   0  0  0  0  0  0  0  0  0  0  0  0
   -2.6180    4.2001    0.0000 O   0  0  0  0  0  0  0  0  0  0  0  0
   -4.2585    4.1382    0.0000 C   0  0  0  0  0  0  0  0  0  0  0  0
   -5.2388    3.4121    0.0000 C   0  0  0  0  0  0  0  0  0  0  0  0
   -5.9452    2.9882    0.0000 C   0  0  0  0  0  0  0  0  0  0  0  0
   -5.2600    4.2323    0.0000 O   0  0  0  0  0  0  0  0  0  0  0  0
   -6.6255    1.7367    0.0000 C   0  0  0  0  0  0  0  0  0  0  0  0
   -6.6051    0.9208    0.0000 C   0  0  0  0  0  0  0  0  0  0  0  0
   -7.3460    2.1346    0.0000 O   0  0  0  0  0  0  0  0  0  0  0  0
   -5.8671   -0.2943    0.0000 C   0  0  0  0  0  0  0  0  0  0  0  0
   -5.1577   -0.6856    0.0000 C   0  0  0  0  0  0  0  0  0  0  0  0
   -6.5710   -0.7232    0.0000 O   0  0  0  0  0  0  0  0  0  0  0  0
   -3.7309   -0.6584    0.0000 C   0  0  0  0  0  0  0  0  0  0  0  0
   -3.0253   -0.2350    0.0000 C   0  0  0  0  0  0  0  0  0  0  0  0
   -3.7125   -1.4807    0.0000 O   0  0  0  0  0  0  0  0  0  0  0  0
   -2.3117   -0.6267    0.0000 C   0  0  0  0  0  0  0  0  0  0  0  0
   -2.2912   -1.4490    0.0000 S   0  0  0  0  0  0  0  0  0  0  0  0
   -1.5782   -1.8408    0.0000 C   0  0  0  0  0  0  0  0  0  0  0  0
   -1.5947   -2.6637    0.0000 C   0  0  0  0  0  0  0  0  0  0  0  0
   -2.0015   -3.3693    0.0000 C   0  0  0  0  0  0  0  0  0  0  0  0
   -1.5935   -4.0753    0.0000 C   0  0  0  0  0  0  0  0  0  0  0  0
   -0.7689   -4.0758    0.0000 C   0  0  0  0  0  0  0  0  0  0  0  0
   -0.3618   -3.3588    0.0000 C   0  0  0  0  0  0  0  0  0  0  0  0
   -0.7714   -2.6540    0.0000 C   0  0  0  0  0  0  0  0  0  0  0  0
    1.8945   -0.5074    0.0000 C   0  0  0  0  0  0  0  0  0  0  0  0
    1.9116    0.3109    0.0000 O   0  0  0  0  0  0  0  0  0  0  0  0
    2.7131   -0.5349    0.0000 N   0  0  0  0  0  0  0  0  0  0  0  0
    3.0990    0.2302    0.0000 C   0  0  0  0  0  0  0  0  0  0  0  0
    2.8249    0.8313    0.0000 C   0  0  0  0  0  0  0  0  0  0  0  0
    2.0023    0.8475    0.0000 O   0  0  0  0  0  0  0  0  0  0  0  0
    4.1594    1.8212    0.0000 C   0  0  0  0  0  0  0  0  0  0  0  0
    4.9438    1.6125    0.0000 C   0  0  0  0  0  0  0  0  0  0  0  0
    5.4950    2.2204    0.0000 O   0  0  0  0  0  0  0  0  0  0  0  0
    6.0830    0.7321    0.0000 C   0  0  0  0  0  0  0  0  0  0  0  0
    6.4579   -0.0004    0.0000 C   0  0  0  0  0  0  0  0  0  0  0  0
    6.5270    1.4243    0.0000 C   0  0  0  0  0  0  0  0  0  0  0  0
    7.2772   -0.0289    0.0000 O   0  0  0  0  0  0  0  0  0  0  0  0
    6.4043   -1.4161    0.0000 C   0  0  0  0  0  0  0  0  0  0  0  0
    5.9653   -2.1114    0.0000 C   0  0  0  0  0  0  0  0  0  0  0  0
    7.2247   -1.4558    0.0000 C   0  0  0  0  0  0  0  0  0  0  0  0
    6.3529   -2.7191    0.0000 O   0  0  0  0  0  0  0  0  0  0  0  0
    4.5759   -2.7811    0.0000 C   0  0  0  0  0  0  0  0  0  0  0  0
    3.8925   -2.7387    0.0000 C   0  0  0  0  0  0  0  0  0  0  0  0
    3.5050   -2.0106    0.0000 O   0  0  0  0  0  0  0  0  0  0  0  0
    0.4568   -3.3569    0.0000 C   0  0  0  0  0  0  0  0  0  0  0  0
   -2.3448    1.0150    0.0000 C   0  0  0  0  0  0  0  0  0  0  0  0
   -2.3653    1.8318    0.0000 C   0  0  0  0  0  0  0  0  0  0  0  0
   -1.6245    0.6189    0.0000 O   0  0  0  0  0  0  0  0  0  0  0  0
   -1.6589    2.2505    0.0000 C   0  0  0  0  0  0  0  0  0  0  0  0
    0.8651   -2.6434    0.0000 S   0  0  0  0  0  0  0  0  0  0  0  0
    1.2931   -1.7897    0.0000 C   0  0  0  0  0  0  0  0  0  0  0  0
    2.5002   -3.3141    0.0000 C   0  0  0  0  0  0  0  0  0  0  0  0
    0.1357   -4.7854    0.0000 S   0  0  0  0  0  0  0  0  0  0  0  0
   -1.1452   -5.1206    0.0000 C   0  0  0  0  0  0  0  0  0  0  0  0
   -7.3159    0.4881    0.0000 C   0  0  0  0  0  0  0  0  0  0  0  0
   -8.0455    0.8839    0.0000 C   0  0  0  0  0  0  0  0  0  0  0  0
    7.3605    1.4243    0.0000 C   0  0  0  0  0  0  0  0  0  0  0  0
    7.7799    2.1418    0.0000 O   0  0  0  0  0  0  0  0  0  0  0  0
   -1.7400    3.6436    0.0000 C   0  0  0  0  0  0  0  0  0  0  0  0
   -1.0152    4.0618    0.0000 C   0  0  0  0  0  0  0  0  0  0  0  0
   -1.0129    4.8930    0.0000 C   0  0  0  0  0  0  0  0  0  0  0  0
    5.0544   -3.6986    0.0000 C   0  0  0  0  0  0  0  0  0  0  0  0
   -5.1353   -1.5274    0.0000 C   0  0  0  0  0  0  0  0  0  0  0  0
   -8.0651    1.7258    0.0000 O   0  0  0  0  0  0  0  0  0  0  0  0
   -6.6743    3.3909    0.0000 C   0  0  0  0  0  0  0  0  0  0  0  0
   -6.6986    4.2272    0.0000 C   0  0  0  0  0  0  0  0  0  0  0  0
   -7.4277    4.6293    0.0000 C   0  0  0  0  0  0  0  0  0  0  0  0
   -8.1771    5.8685    0.0000 C   0  0  0  0  0  0  0  0  0  0  0  0
   -3.8724    4.8774    0.0000 C   0  0  0  0  0  0  0  0  0  0  0  0
   -3.0350    4.9088    0.0000 C   0  0  0  0  0  0  0  0  0  0  0  0
   -2.6484    5.6552    0.0000 C   0  0  0  0  0  0  0  0  0  0  0  0
   -3.0968    6.3564    0.0000 C   0  0  0  0  0  0  0  0  0  0  0  0
   -3.9353    6.3185    0.0000 C   0  0  0  0  0  0  0  0  0  0  0  0
   -4.3180    5.5807    0.0000 C   0  0  0  0  0  0  0  0  0  0  0  0
   -0.2832    6.1478    0.0000 C   0  0  0  0  0  0  0  0  0  0  0  0
    0.1634    1.9602    0.0000 C   0  0  0  0  0  0  0  0  0  0  0  0
    1.0026    1.9628    0.0000 C   0  0  0  0  0  0  0  0  0  0  0  0
    1.4147    2.6882    0.0000 O   0  0  0  0  0  0  0  0  0  0  0  0
    3.9306    0.2294    0.0000 C   0  0  0  0  0  0  0  0  0  0  0  0
    3.4402   -0.9506    0.0000 C   0  0  0  0  0  0  0  0  0  0  0  0
    4.1670   -0.5271    0.0000 C   0  0  0  0  0  0  0  0  0  0  0  0
    3.6883    0.8248    0.0000 H   0  0  0  0  0  0  0  0  0  0  0  0
    7.6121   -2.1946    0.0000 C   0  0  0  0  0  0  0  0  0  0  0  0
    8.4461   -2.2310    0.0000 C   0  0  0  0  0  0  0  0  0  0  0  0
    8.8336   -2.9753    0.0000 O   0  0  0  0  0  0  0  0  0  0  0  0
    1.5526   -3.4988    0.0000 O   0  0  0  0  0  0  0  0  0  0  0  0
    2.9037   -4.0255    0.0000 C   0  0  0  0  0  0  0  0  0  0  0  0
    3.7437   -4.0341    0.0000 C   0  0  0  0  0  0  0  0  0  0  0  0
    4.1545   -4.7664    0.0000 C   0  0  0  0  0  0  0  0  0  0  0  0
    4.1683   -3.3146    0.0000 C   0  0  0  0  0  0  0  0  0  0  0  0
   -0.0814   -5.9692    0.0000 N   0  0  0  0  0  0  0  0  0  0  0  0
   -1.5447   -6.7001    0.0000 N   0  0  0  0  0  0  0  0  0  0  0  0
    1.8671   -4.8055    0.0000 N   0  0  0  0  0  0  0  0  0  0  0  0
   -0.1880   -0.1873    0.0000 N   0  0  0  0  0  0  0  0  0  0  0  0
   -0.9825    1.6150    0.0000 N   0  0  0  0  0  0  0  0  0  0  0  0
   -2.5625    2.7828    0.0000 N   0  0  0  0  0  0  0  0  0  0  0  0
   -4.5207    3.0141    0.0000 N   0  0  0  0  0  0  0  0  0  0  0  0
   -5.9248    2.1666    0.0000 N   0  0  0  0  0  0  0  0  0  0  0  0
   -5.8853    0.5226    0.0000 N   0  0  0  0  0  0  0  0  0  0  0  0
   -4.4521   -0.2669    0.0000 N   0  0  0  0  0  0  0  0  0  0  0  0
   -3.0458    0.5872    0.0000 N   0  0  0  0  0  0  0  0  0  0  0  0
    3.3689    1.4706    0.0000 N   0  0  0  0  0  0  0  0  0  0  0  0
    5.2633    0.7617    0.0000 N   0  0  0  0  0  0  0  0  0  0  0  0
    6.0191   -0.6880    0.0000 N   0  0  0  0  0  0  0  0  0  0  0  0
    5.1451   -2.0776    0.0000 N   0  0  0  0  0  0  0  0  0  0  0  0
    3.5489   -3.3108    0.0000 N   0  0  0  0  0  0  0  0  0  0  0  0
   -3.0788    2.2288    0.0000 N   0  0  0  0  0  0  0  0  0  0  0  0
   -8.7599    0.4577    0.0000 O   0  0  0  0  0  0  0  0  0  0  0  0
    7.7733    0.6986    0.0000 O   0  0  0  0  0  0  0  0  0  0  0  0
   -5.8520   -1.9555    0.0000 O   0  0  0  0  0  0  0  0  0  0  0  0
   -7.4477    5.4655    0.0000 N   0  0  0  0  0  0  0  0  0  0  0  0
   -8.2013    6.7001    0.0000 N   0  0  0  0  0  0  0  0  0  0  0  0
   -8.8985    5.4346    0.0000 N   0  0  0  0  0  0  0  0  0  0  0  0
   -0.2856    5.3112    0.0000 N   0  0  0  0  0  0  0  0  0  0  0  0
    0.4465    6.5616    0.0000 N   0  0  0  0  0  0  0  0  0  0  0  0
   -1.0054    6.5688    0.0000 N   0  0  0  0  0  0  0  0  0  0  0  0
    1.4264    1.2421    0.0000 N   0  0  0  0  0  0  0  0  0  0  0  0
    8.8985   -1.5215    0.0000 O   0  0  0  0  0  0  0  0  0  0  0  0
    6.0903   -3.7458    0.0000 O   0  0  0  0  0  0  0  0  0  0  0  0
    0.6992   -1.1429    0.0000 H   0  0  0  0  0  0  0  0  0  0  0  0
 23 24  1  0
 23 25  2  0
 24115  1  0
115 26  1  0
 26 27  1  0
 26 28  2  0
 27116  1  0
116 29  1  0
 29 30  1  0
 29 31  2  0
 30 32  1  0
 30117  1  1
 32 33  1  0
 33 34  1  0
 34 35  1  0
 35 36  2  0
 36 37  1  0
 37 38  2  0
 38 39  1  0
 39 40  2  0
 40 35  1  0
  9 41  1  0
 41 42  2  0
 41 43  1  0
 44 43  1  0
 44 45  1  0
 45118  1  0
 45 46  2  0
118 47  1  0
 47 48  1  0
 48119  1  0
 48 49  2  0
119 50  1  0
 50 51  1  0
 50 52  1  1
 51120  1  0
 51 53  2  0
120 54  1  0
 54 55  1  0
 54 56  1  1
 55121  1  0
 55 57  2  0
121 58  1  0
 58 59  1  0
 59 60  2  0
 59122  1  0
 39 61  1  0
117 62  1  0
 62 63  1  0
 62 64  2  0
 63 65  1  1
 63123  1  0
 61 66  1  0
 66 67  1  0
  9 67  1  0
122 68  1  0
 68  8  1  0
  7  1  1  6
  6 69  1  0
 69 70  1  0
 70 37  1  0
 24 71  1  1
 71 72  1  0
 72124  1  0
 52 73  1  0
 73 74  2  0
 73125  1  0
 14 75  1  1
 75 76  1  0
 76 77  1  0
 58 78  1  1
 27 79  1  1
 79126  1  0
 72 80  2  0
 21 81  1  1
 81 82  1  0
 82 83  1  0
 83127  1  0
127 84  1  0
 84128  2  0
 84129  1  0
 19 85  1  0
 85 86  2  0
 86 87  1  0
 87 88  2  0
 88 89  1  0
 89 90  2  0
 90 85  1  0
 77130  1  0
130 91  1  0
 91131  1  0
 91132  2  0
 11 92  1  1
 92 93  1  0
 93 94  2  0
 93133  1  0
 44 95  1  0
 43 96  1  0
 96 97  1  0
 97 95  1  0
 44 98  1  1
 56 99  1  0
 99100  1  0
100101  2  0
100134  1  0
  8102  2  0
 68103  1  6
103104  1  0
104105  1  0
104106  1  0
 78135  1  0
  1107  1  0
  1  2  2  0
107  3  1  0
  3  4  1  0
  4  5  2  0
  4108  1  0
  7  6  1  0
  7109  1  0
109  8  1  0
  9110  1  0
110 10  1  0
 10 11  1  0
 10 12  2  0
 11111  1  0
111 13  1  0
 13 14  1  0
 13 15  2  0
 14112  1  0
112 16  1  0
 16 17  1  0
 16 18  2  0
 17 19  1  1
 17113  1  0
113 20  1  0
 20 21  1  0
 20 22  2  0
 21114  1  0
114 23  1  0
  9136  1  1
M  END

> <chembl_id>
CHEMBL1240691

> <chembl_pref_name>
None

$$$$

     RDKit          2D

 26 29  0  0  0  0  0  0  0  0999 V2000
   -2.7082   -7.1649    0.0000 C   0  0  0  0  0  0  0  0  0  0  0  0
   -2.7033   -8.0066    0.0000 C   0  0  0  0  0  0  0  0  0  0  0  0
   -4.1379   -7.1732    0.0000 C   0  0  0  0  0  0  0  0  0  0  0  0
   -4.1426   -6.3546    0.0000 C   0  0  0  0  0  0  0  0  0  0  0  0
   -3.4308   -5.9403    0.0000 C   0  0  0  0  0  0  0  0  0  0  0  0
   -2.7129   -6.3472    0.0000 C   0  0  0  0  0  0  0  0  0  0  0  0
   -3.4110   -8.4265    0.0000 N   0  0  0  0  0  0  0  0  0  0  0  0
   -4.1331   -8.0148    0.0000 C   0  0  0  0  0  0  0  0  0  0  0  0
   -3.4207   -6.7532    0.0000 C   0  0  0  0  0  0  0  0  0  0  0  0
   -1.9889   -8.4125    0.0000 C   0  0  0  0  0  0  0  0  0  0  0  0
   -1.9830   -9.2386    0.0000 C   0  0  0  0  0  0  0  0  0  0  0  0
   -1.2657   -9.6447    0.0000 C   0  0  0  0  0  0  0  0  0  0  0  0
   -0.5540   -9.2258    0.0000 C   0  0  0  0  0  0  0  0  0  0  0  0
   -0.5639   -8.3966    0.0000 C   0  0  0  0  0  0  0  0  0  0  0  0
   -1.2817   -7.9943    0.0000 C   0  0  0  0  0  0  0  0  0  0  0  0
   -4.8423   -8.4306    0.0000 C   0  0  0  0  0  0  0  0  0  0  0  0
   -5.5594   -8.0204    0.0000 C   0  0  0  0  0  0  0  0  0  0  0  0
   -6.2789   -8.4362    0.0000 C   0  0  0  0  0  0  0  0  0  0  0  0
   -6.2748   -9.2621    0.0000 C   0  0  0  0  0  0  0  0  0  0  0  0
   -5.5451   -9.6704    0.0000 C   0  0  0  0  0  0  0  0  0  0  0  0
   -4.8364   -9.2522    0.0000 C   0  0  0  0  0  0  0  0  0  0  0  0
   -3.4333   -5.4792    0.0000 N   0  0  0  0  0  0  0  0  0  0  0  0
   -2.5292   -5.4792    0.0000 O   0  0  0  0  0  0  0  0  0  0  0  0
   -4.8598   -7.5725    0.0000 C   0  0  0  0  0  0  0  0  0  0  0  0
    0.1454   -7.9753    0.0000 F   0  0  0  0  0  0  0  0  0  0  0  0
   -6.9876   -8.0274    0.0000 F   0  0  0  0  0  0  0  0  0  0  0  0
 12 13  2  0
  1  6  1  0
 13 14  1  0
  7  8  1  0
 14 15  2  0
 15 10  1  0
  2 10  1  0
  8  3  1  0
  3  9  1  0
 16 17  2  0
  9  1  1  0
 17 18  1  0
  1  2  1  0
 18 19  2  0
  2  7  1  0
 19 20  1  0
 20 21  2  0
 21 16  1  0
  8 16  1  0
  3  4  1  0
  9 22  2  0
 10 11  2  0
 22 23  1  0
  4  5  1  0
  3 24  1  0
 11 12  1  0
 14 25  1  0
  5  6  1  0
 18 26  1  0
M  END

> <chembl_id>
CHEMBL1080690

> <chembl_pref_name>
None

$$$$

     RDKit          2D

 23 25  0  0  0  0  0  0  0  0999 V2000
   -0.1815   -0.8096    0.0000 O   0  0  0  0  0  0  0  0  0  0  0  0
   -3.0393   -0.8096    0.0000 O   0  0  0  0  0  0  0  0  0  0  0  0
   -0.1815    3.3154    0.0000 N   0  0  0  0  0  0  0  0  0  0  0  0
   -0.1815    1.6654    0.0000 N   0  0  0  0  0  0  0  0  0  0  0  0
    0.5330    4.5529    0.0000 N   0  0  0  0  0  0  0  0  0  0  0  0
   -0.8959    4.5529    0.0000 N   0  0  0  0  0  0  0  0  0  0  0  0
   -0.8959    0.4279    0.0000 C   0  0  0  0  0  0  0  0  0  0  0  0
   -0.8959   -0.3971    0.0000 C   0  0  0  0  0  0  0  0  0  0  0  0
   -0.1815    4.1404    0.0000 C   0  0  0  0  0  0  0  0  0  0  0  0
   -0.1815    0.8404    0.0000 C   0  0  0  0  0  0  0  0  0  0  0  0
    0.5330    2.9029    0.0000 C   0  0  0  0  0  0  0  0  0  0  0  0
   -0.8959    2.9029    0.0000 C   0  0  0  0  0  0  0  0  0  0  0  0
    0.5330    2.0779    0.0000 C   0  0  0  0  0  0  0  0  0  0  0  0
   -0.8959    2.0779    0.0000 C   0  0  0  0  0  0  0  0  0  0  0  0
   -1.6104    0.8404    0.0000 C   0  0  0  0  0  0  0  0  0  0  0  0
   -1.6104   -0.8096    0.0000 C   0  0  0  0  0  0  0  0  0  0  0  0
   -2.3249   -0.3971    0.0000 C   0  0  0  0  0  0  0  0  0  0  0  0
   -2.3249    0.4279    0.0000 C   0  0  0  0  0  0  0  0  0  0  0  0
    0.5330    5.3779    0.0000 C   0  0  0  0  0  0  0  0  0  0  0  0
   -0.8959    5.3779    0.0000 C   0  0  0  0  0  0  0  0  0  0  0  0
   -0.1815    5.7904    0.0000 C   0  0  0  0  0  0  0  0  0  0  0  0
   -0.1815   -1.6346    0.0000 C   0  0  0  0  0  0  0  0  0  0  0  0
   -3.0393   -1.6346    0.0000 C   0  0  0  0  0  0  0  0  0  0  0  0
  1  8  1  0
  1 22  1  0
  2 17  1  0
  2 23  1  0
  3  9  1  0
  3 11  1  0
  3 12  1  0
  4 10  1  0
  4 13  1  0
  4 14  1  0
  5  9  2  0
  5 19  1  0
  6  9  1  0
  6 20  2  0
  7  8  1  0
  7 10  1  0
  7 15  2  0
  8 16  2  0
 11 13  1  0
 12 14  1  0
 15 18  1  0
 16 17  1  0
 17 18  2  0
 19 21  2  0
 20 21  1  0
M  END

> <chembl_id>
CHEMBL1406964

> <chembl_pref_name>
None

$$$$

     RDKit          2D

 25 27  0  0  0  0  0  0  0  0999 V2000
   -2.7500  -22.4333    0.0000 C   0  0  0  0  0  0  0  0  0  0  0  0
   -2.0355  -22.0208    0.0000 C   0  0  0  0  0  0  0  0  0  0  0  0
   -3.4645  -22.0208    0.0000 C   0  0  0  0  0  0  0  0  0  0  0  0
   -2.7500  -23.2583    0.0000 N   0  0  0  0  0  0  0  0  0  0  0  0
   -1.3211  -22.4333    0.0000 N   0  0  0  0  0  0  0  0  0  0  0  0
   -2.0355  -21.1958    0.0000 O   0  0  0  0  0  0  0  0  0  0  0  0
   -0.6066  -22.0208    0.0000 C   0  0  0  0  0  0  0  0  0  0  0  0
    0.1079  -22.4333    0.0000 C   0  0  0  0  0  0  0  0  0  0  0  0
    0.8239  -22.0198    0.0000 C   0  0  0  0  0  0  0  0  0  0  0  0
   -4.1789  -22.4334    0.0000 C   0  0  0  0  0  0  0  0  0  0  0  0
   -4.8585  -21.9581    0.0000 S   0  0  0  0  0  0  0  0  0  0  0  0
   -5.5199  -22.4513    0.0000 C   0  0  0  0  0  0  0  0  0  0  0  0
   -5.2552  -23.2327    0.0000 C   0  0  0  0  0  0  0  0  0  0  0  0
   -4.4303  -23.2223    0.0000 C   0  0  0  0  0  0  0  0  0  0  0  0
    1.5374  -22.4336    0.0000 C   0  0  0  0  0  0  0  0  0  0  0  0
    1.5321  -20.7799    0.0000 C   0  0  0  0  0  0  0  0  0  0  0  0
    0.8195  -21.1951    0.0000 C   0  0  0  0  0  0  0  0  0  0  0  0
    2.2533  -21.1931    0.0000 C   0  0  0  0  0  0  0  0  0  0  0  0
    2.2516  -22.0190    0.0000 C   0  0  0  0  0  0  0  0  0  0  0  0
    2.9648  -22.4316    0.0000 C   0  0  0  0  0  0  0  0  0  0  0  0
    3.6803  -22.0195    0.0000 C   0  0  0  0  0  0  0  0  0  0  0  0
    3.6780  -21.1904    0.0000 C   0  0  0  0  0  0  0  0  0  0  0  0
    2.9641  -20.7816    0.0000 C   0  0  0  0  0  0  0  0  0  0  0  0
   -0.6066  -21.1932    0.0000 C   0  0  0  0  0  0  0  0  0  0  0  0
   -0.6066  -20.3682    0.0000 N   0  0  0  0  0  0  0  0  0  0  0  0
 11 12  1  0
 12 13  2  0
 13 14  1  0
 14 10  2  0
  1  4  1  1
  9 15  2  0
 15 19  1  0
  7  8  1  0
 18 16  1  0
 16 17  2  0
 17  9  1  0
  8  9  1  0
  2  5  1  0
 18 19  2  0
  3 10  1  0
 19 20  1  0
 10 11  1  0
 20 21  2  0
  1  3  1  0
 21 22  1  0
  2  6  2  0
 22 23  2  0
 23 18  1  0
  1  2  1  0
  5  7  1  0
 24 25  3  0
  7 24  1  6
M  END

> <chembl_id>
CHEMBL1081694

> <chembl_pref_name>
None

$$$$

     RDKit          2D

 32 33  0  0  1  0  0  0  0  0999 V2000
    2.0337    0.5923    0.0000 S   0  0  0  0  0  0  0  0  0  0  0  0
    4.8915   -0.2327    0.0000 S   0  0  0  0  0  0  0  0  0  0  0  0
    2.0337    1.4173    0.0000 O   0  0  0  0  0  0  0  0  0  0  0  0
    2.8587    0.5923    0.0000 O   0  0  0  0  0  0  0  0  0  0  0  0
    2.0337   -1.8827    0.0000 O   0  0  0  0  0  0  0  0  0  0  0  0
    6.3205   -2.7077    0.0000 O   0  0  0  0  0  0  0  0  0  0  0  0
    7.0350   -5.5952    0.0000 O   0  0  0  0  0  0  0  0  0  0  0  0
    5.6060   -5.5952    0.0000 O   0  0  0  0  0  0  0  0  0  0  0  0
    2.0337   -0.2327    0.0000 N   0  0  0  0  0  0  0  0  0  0  0  0
    3.4626   -1.8827    0.0000 N   0  0  0  0  0  0  0  0  0  0  0  0
    5.6060   -3.9452    0.0000 N   0  0  0  0  0  0  0  0  0  0  0  0
    1.2087    0.5923    0.0000 C   0  0  0  0  0  0  0  0  0  0  0  0
    2.7481   -0.6452    0.0000 C   0  0  0  0  0  0  0  0  0  0  0  0
    2.7481   -1.4702    0.0000 C   0  0  0  0  0  0  0  0  0  0  0  0
    4.8915   -2.7077    0.0000 C   0  0  0  0  0  0  0  0  0  0  0  0
    0.7962   -0.1222    0.0000 C   0  0  0  0  0  0  0  0  0  0  0  0
    0.7962    1.3068    0.0000 C   0  0  0  0  0  0  0  0  0  0  0  0
    4.1771   -1.4702    0.0000 C   0  0  0  0  0  0  0  0  0  0  0  0
    3.4626   -2.7077    0.0000 C   0  0  0  0  0  0  0  0  0  0  0  0
    3.4626   -0.2327    0.0000 C   0  0  0  0  0  0  0  0  0  0  0  0
    4.8915   -1.8827    0.0000 C   0  0  0  0  0  0  0  0  0  0  0  0
    4.1771   -3.1202    0.0000 C   0  0  0  0  0  0  0  0  0  0  0  0
    5.6060   -3.1202    0.0000 C   0  0  0  0  0  0  0  0  0  0  0  0
   -0.4413    0.5923    0.0000 C   0  0  0  0  0  0  0  0  0  0  0  0
   -0.0288   -0.1222    0.0000 C   0  0  0  0  0  0  0  0  0  0  0  0
   -0.0288    1.3068    0.0000 C   0  0  0  0  0  0  0  0  0  0  0  0
    4.1771   -0.6452    0.0000 C   0  0  0  0  0  0  0  0  0  0  0  0
    6.3205   -4.3577    0.0000 C   0  0  0  0  0  0  0  0  0  0  0  0
   -1.2663    0.5923    0.0000 C   0  0  0  0  0  0  0  0  0  0  0  0
    6.3205   -5.1827    0.0000 C   0  0  0  0  0  0  0  0  0  0  0  0
    7.0350   -3.9452    0.0000 C   0  0  0  0  0  0  0  0  0  0  0  0
    5.6060   -0.6452    0.0000 C   0  0  0  0  0  0  0  0  0  0  0  0
  1  3  2  0
  1  4  2  0
  1  9  1  0
  1 12  1  0
  2 27  1  0
  2 32  1  0
  5 14  2  0
  6 23  2  0
  7 30  2  0
  8 30  1  0
  9 13  1  0
 10 14  1  0
 10 18  1  0
 10 19  1  0
 11 23  1  0
 11 28  1  0
 12 16  2  0
 12 17  1  0
 13 14  1  0
 13 20  1  1
 15 21  1  0
 15 22  1  0
 15 23  1  0
 16 25  1  0
 17 26  2  0
 18 21  1  0
 19 22  1  0
 20 27  1  0
 24 25  2  0
 24 26  1  0
 24 29  1  0
 28 30  1  0
 28 31  1  1
M  END

> <chembl_id>
CHEMBL1400604

> <chembl_pref_name>
None

$$$$

     RDKit          2D

 31 35  0  0  1  0  0  0  0  0999 V2000
  -12.2420   -1.6541    0.0000 F   0  0  0  0  0  0  0  0  0  0  0  0
  -11.2891   -0.9248    0.0000 C   0  0  0  0  0  0  0  0  0  0  0  0
  -11.4446    0.2651    0.0000 F   0  0  0  0  0  0  0  0  0  0  0  0
  -12.3972   -0.4644    0.0000 F   0  0  0  0  0  0  0  0  0  0  0  0
   -9.9029   -1.5001    0.0000 C   0  0  0  0  0  0  0  0  0  0  0  0
   -9.7080   -2.9873    0.0000 C   0  0  0  0  0  0  0  0  0  0  0  0
   -8.3225   -3.5622    0.0000 N   0  0  0  0  0  0  0  0  0  0  0  0
   -7.1319   -2.6499    0.0000 C   0  0  0  0  0  0  0  0  0  0  0  0
   -5.7445   -3.2223    0.0000 N   0  0  0  0  0  0  0  0  0  0  0  0
   -4.5628   -2.3141    0.0000 C   0  0  0  0  0  0  0  0  0  0  0  0
   -3.8642   -1.1134    0.0000 C   0  0  0  0  0  0  0  0  0  0  0  0
   -2.4451   -0.7641    0.0000 C   0  0  0  0  0  0  0  0  0  0  0  0
   -1.2226   -1.1134    0.0000 C   0  0  0  0  0  0  0  0  0  0  0  0
   -1.8993   -2.3141    0.0000 C   0  0  0  0  0  0  0  0  0  0  0  0
   -3.2310   -1.9430    0.0000 C   0  0  0  0  0  0  0  0  0  0  0  0
   -3.2310    0.3930    0.0000 N   0  0  0  0  0  0  0  0  0  0  0  0
   -3.7553    1.7778    0.0000 C   0  0  0  0  0  0  0  0  0  0  0  0
   -4.9391    1.9745    0.0000 O   0  0  0  0  0  0  0  0  0  0  0  0
   -2.8024    2.9373    0.0000 C   0  0  0  0  0  0  0  0  0  0  0  0
   -1.3225    2.6925    0.0000 C   0  0  0  0  0  0  0  0  0  0  0  0
   -0.3704    3.8516    0.0000 C   0  0  0  0  0  0  0  0  0  0  0  0
   -0.8981    5.2557    0.0000 C   0  0  0  0  0  0  0  0  0  0  0  0
   -2.3780    5.5007    0.0000 C   0  0  0  0  0  0  0  0  0  0  0  0
   -3.3301    4.3416    0.0000 C   0  0  0  0  0  0  0  0  0  0  0  0
   -4.8107    4.5868    0.0000 N   0  0  0  0  0  0  0  0  0  0  0  0
   -5.8589    3.5317    0.0000 N   0  0  0  0  0  0  0  0  0  0  0  0
   -7.1895    4.2242    0.0000 C   0  0  0  0  0  0  0  0  0  0  0  0
   -6.9421    5.7036    0.0000 C   0  0  0  0  0  0  0  0  0  0  0  0
   -5.4586    5.9255    0.0000 N   0  0  0  0  0  0  0  0  0  0  0  0
   -7.3268   -1.1626    0.0000 C   0  0  0  0  0  0  0  0  0  0  0  0
   -8.7122   -0.5877    0.0000 N   0  0  0  0  0  0  0  0  0  0  0  0
  1  2  1  0
  2  3  1  0
  2  4  1  0
  2  5  1  0
  5  6  2  0
  6  7  1  0
  7  8  2  0
  8  9  1  0
 10  9  1  1
 10 11  1  0
 12 11  1  1
 12 13  1  0
 13 14  1  0
 15 14  1  6
 15 10  1  0
 15 16  1  0
 16 12  1  0
 16 17  1  0
 17 18  2  0
 17 19  1  0
 19 20  2  0
 20 21  1  0
 21 22  2  0
 22 23  1  0
 23 24  2  0
 24 19  1  0
 24 25  1  0
 25 26  1  0
 26 27  2  0
 27 28  1  0
 28 29  2  0
 29 25  1  0
  8 30  1  0
 30 31  2  0
 31  5  1  0
M  END

> <chembl_id>
CHEMBL3902222

> <chembl_pref_name>
None

$$$$

     RDKit          2D

 20 22  0  0  0  0  0  0  0  0999 V2000
    7.8370   -1.0846    0.0000 C   0  0  0  0  0  0  0  0  0  0  0  0
    8.6194   -1.3427    0.0000 C   0  0  0  0  0  0  0  0  0  0  0  0
    8.6163   -2.1714    0.0000 C   0  0  0  0  0  0  0  0  0  0  0  0
    9.2813   -2.6569    0.0000 O   0  0  0  0  0  0  0  0  0  0  0  0
    7.8295   -2.4215    0.0000 C   0  0  0  0  0  0  0  0  0  0  0  0
    7.3462   -1.7522    0.0000 O   0  0  0  0  0  0  0  0  0  0  0  0
    7.5712   -3.2040    0.0000 C   0  0  0  0  0  0  0  0  0  0  0  0
    8.1198   -3.8233    0.0000 O   0  0  0  0  0  0  0  0  0  0  0  0
    7.5863   -0.2996    0.0000 N   0  0  0  0  0  0  0  0  0  0  0  0
    5.3711    0.7824    0.0000 N   0  0  0  0  0  0  0  0  0  0  0  0
    5.3700   -0.0439    0.0000 C   0  0  0  0  0  0  0  0  0  0  0  0
    6.0839   -0.4563    0.0000 N   0  0  0  0  0  0  0  0  0  0  0  0
    6.0821    1.1946    0.0000 C   0  0  0  0  0  0  0  0  0  0  0  0
    6.7966    0.7860    0.0000 C   0  0  0  0  0  0  0  0  0  0  0  0
    6.7968   -0.0439    0.0000 C   0  0  0  0  0  0  0  0  0  0  0  0
    8.0740    0.3714    0.0000 C   0  0  0  0  0  0  0  0  0  0  0  0
    7.5859    1.0427    0.0000 N   0  0  0  0  0  0  0  0  0  0  0  0
    6.0796    2.0186    0.0000 N   0  0  0  0  0  0  0  0  0  0  0  0
    4.6560   -0.4553    0.0000 Cl  0  0  0  0  0  0  0  0  0  0  0  0
    9.2881   -0.8612    0.0000 O   0  0  0  0  0  0  0  0  0  0  0  0
  2  3  1  0
 10 11  2  0
  3  4  1  6
 11 12  1  0
 12 15  2  0
  3  5  1  0
 14 13  2  0
 13 10  1  0
 14 15  1  0
  5  6  1  0
  5  7  1  1
  7  8  1  0
  1  6  1  0
 15  9  1  0
  9 16  1  0
 16 17  2  0
 17 14  1  0
 13 18  1  0
  1  9  1  1
 11 19  1  0
  1  2  1  0
  2 20  1  6
M  END

> <chembl_id>
CHEMBL285819

> <chembl_pref_name>
None

$$$$

     RDKit          2D

 38 42  0  0  0  0  0  0  0  0999 V2000
    9.2035    1.8058    0.0000 N   0  0  0  0  0  0  0  0  0  0  0  0
    9.2078    0.9763    0.0000 C   0  0  0  0  0  0  0  0  0  0  0  0
    9.9244    0.5674    0.0000 C   0  0  0  0  0  0  0  0  0  0  0  0
   10.6413    0.9836    0.0000 C   0  0  0  0  0  0  0  0  0  0  0  0
   10.6371    1.8133    0.0000 N   0  0  0  0  0  0  0  0  0  0  0  0
    9.9158    2.2267    0.0000 C   0  0  0  0  0  0  0  0  0  0  0  0
   11.3575    0.5743    0.0000 N   0  0  0  0  0  0  0  0  0  0  0  0
   12.6936    0.5424    0.0000 N   0  0  0  0  0  0  0  0  0  0  0  0
   12.0373    1.0422    0.0000 C   0  0  0  0  0  0  0  0  0  0  0  0
   12.4209   -0.2364    0.0000 C   0  0  0  0  0  0  0  0  0  0  0  0
   11.5987   -0.2163    0.0000 C   0  0  0  0  0  0  0  0  0  0  0  0
   11.1720   -0.9172    0.0000 C   0  0  0  0  0  0  0  0  0  0  0  0
   11.5663   -1.6387    0.0000 C   0  0  0  0  0  0  0  0  0  0  0  0
   12.3918   -1.6549    0.0000 C   0  0  0  0  0  0  0  0  0  0  0  0
   12.8149   -0.9533    0.0000 C   0  0  0  0  0  0  0  0  0  0  0  0
   12.0571    1.8669    0.0000 N   0  0  0  0  0  0  0  0  0  0  0  0
   12.7813    2.2622    0.0000 C   0  0  0  0  0  0  0  0  0  0  0  0
   13.4832    1.8303    0.0000 C   0  0  0  0  0  0  0  0  0  0  0  0
   14.2069    2.2249    0.0000 C   0  0  0  0  0  0  0  0  0  0  0  0
   14.2272    3.0506    0.0000 C   0  0  0  0  0  0  0  0  0  0  0  0
   13.5178    3.4800    0.0000 C   0  0  0  0  0  0  0  0  0  0  0  0
   12.7970    3.0831    0.0000 C   0  0  0  0  0  0  0  0  0  0  0  0
   12.0907    3.5095    0.0000 C   0  0  0  0  0  0  0  0  0  0  0  0
    8.4954    0.5600    0.0000 N   0  0  0  0  0  0  0  0  0  0  0  0
   14.9111    1.7950    0.0000 C   0  0  0  0  0  0  0  0  0  0  0  0
   14.8908    0.9702    0.0000 O   0  0  0  0  0  0  0  0  0  0  0  0
   15.6354    2.1899    0.0000 N   0  0  0  0  0  0  0  0  0  0  0  0
   16.3396    1.7600    0.0000 C   0  0  0  0  0  0  0  0  0  0  0  0
   16.3168    0.9342    0.0000 C   0  0  0  0  0  0  0  0  0  0  0  0
   17.0201    0.5045    0.0000 C   0  0  0  0  0  0  0  0  0  0  0  0
   17.0592    2.1545    0.0000 C   0  0  0  0  0  0  0  0  0  0  0  0
   17.7632    1.7285    0.0000 C   0  0  0  0  0  0  0  0  0  0  0  0
   17.7443    0.9003    0.0000 C   0  0  0  0  0  0  0  0  0  0  0  0
   17.0002   -0.3203    0.0000 C   0  0  0  0  0  0  0  0  0  0  0  0
   16.2760   -0.7155    0.0000 F   0  0  0  0  0  0  0  0  0  0  0  0
   17.7045   -0.7499    0.0000 F   0  0  0  0  0  0  0  0  0  0  0  0
   16.9953   -1.1413    0.0000 F   0  0  0  0  0  0  0  0  0  0  0  0
    9.9275   -0.2576    0.0000 C   0  0  0  0  0  0  0  0  0  0  0  0
 17 18  2  0
 10  8  1  0
 18 19  1  0
  8  9  2  0
 19 20  2  0
  9  7  1  0
 20 21  1  0
  2  3  2  0
 21 22  2  0
 22 17  1  0
  3  4  1  0
 22 23  1  0
 10 11  2  0
  2 24  1  0
  4  5  2  0
 19 25  1  0
 11 12  1  0
 25 26  2  0
  5  6  1  0
 25 27  1  0
 12 13  2  0
 27 28  1  0
 28 29  2  0
 13 14  1  0
 29 30  1  0
 30 33  2  0
  4  7  1  0
 32 31  2  0
 31 28  1  0
 14 15  2  0
 15 10  1  0
 32 33  1  0
  7 11  1  0
 30 34  1  0
  9 16  1  0
 34 35  1  0
  1  2  1  0
 34 36  1  0
 16 17  1  0
 34 37  1  0
  1  6  2  0
  3 38  1  0
M  END

> <chembl_id>
CHEMBL1080294

> <chembl_pref_name>
None

$$$$

     RDKit          2D

 32 35  0  0  0  0  0  0  0  0999 V2000
   -2.0137   -5.5687    0.0000 C   0  0  0  0  0  0  0  0  0  0  0  0
   -2.0150   -6.3963    0.0000 C   0  0  0  0  0  0  0  0  0  0  0  0
   -1.3020   -6.8092    0.0000 C   0  0  0  0  0  0  0  0  0  0  0  0
   -1.3039   -5.1559    0.0000 C   0  0  0  0  0  0  0  0  0  0  0  0
   -0.5857   -5.5647    0.0000 C   0  0  0  0  0  0  0  0  0  0  0  0
   -0.5852   -6.3916    0.0000 C   0  0  0  0  0  0  0  0  0  0  0  0
    0.2016   -6.6459    0.0000 N   0  0  0  0  0  0  0  0  0  0  0  0
    0.6872   -5.9774    0.0000 C   0  0  0  0  0  0  0  0  0  0  0  0
    0.2005   -5.3087    0.0000 C   0  0  0  0  0  0  0  0  0  0  0  0
    1.5122   -5.9767    0.0000 C   0  0  0  0  0  0  0  0  0  0  0  0
    0.6118   -7.3616    0.0000 C   0  0  0  0  0  0  0  0  0  0  0  0
   -2.7283   -5.1573    0.0000 C   0  0  0  0  0  0  0  0  0  0  0  0
   -2.7277   -4.3312    0.0000 C   0  0  0  0  0  0  0  0  0  0  0  0
   -3.4417   -3.9194    0.0000 C   0  0  0  0  0  0  0  0  0  0  0  0
   -4.1568   -4.3326    0.0000 C   0  0  0  0  0  0  0  0  0  0  0  0
   -4.1534   -5.1618    0.0000 C   0  0  0  0  0  0  0  0  0  0  0  0
   -3.4388   -5.5699    0.0000 C   0  0  0  0  0  0  0  0  0  0  0  0
   -4.8721   -3.9216    0.0000 C   0  0  0  0  0  0  0  0  0  0  0  0
   -4.8739   -3.0966    0.0000 C   0  0  0  0  0  0  0  0  0  0  0  0
   -5.5857   -4.3356    0.0000 C   0  0  0  0  0  0  0  0  0  0  0  0
   -5.5916   -3.5062    0.0000 C   0  0  0  0  0  0  0  0  0  0  0  0
    1.9252   -6.6910    0.0000 O   0  0  0  0  0  0  0  0  0  0  0  0
    1.9242   -5.2621    0.0000 O   0  0  0  0  0  0  0  0  0  0  0  0
    0.1927   -8.0727    0.0000 C   0  0  0  0  0  0  0  0  0  0  0  0
    0.6022   -8.7880    0.0000 C   0  0  0  0  0  0  0  0  0  0  0  0
    1.4281   -8.7911    0.0000 C   0  0  0  0  0  0  0  0  0  0  0  0
    1.8427   -8.0729    0.0000 C   0  0  0  0  0  0  0  0  0  0  0  0
    1.4309   -7.3605    0.0000 C   0  0  0  0  0  0  0  0  0  0  0  0
    1.8393   -9.5063    0.0000 O   0  0  0  0  0  0  0  0  0  0  0  0
    1.4254  -10.2200    0.0000 C   0  0  0  0  0  0  0  0  0  0  0  0
    1.8366  -10.9352    0.0000 C   0  0  0  0  0  0  0  0  0  0  0  0
    0.6004  -10.2184    0.0000 C   0  0  0  0  0  0  0  0  0  0  0  0
 15 16  1  0
  6  7  1  0
 16 17  2  0
 17 12  1  0
  1 12  1  0
  7  8  1  0
 15 18  1  0
  8  9  2  0
 18 19  1  0
  9  5  1  0
 18 20  1  0
  4  1  1  0
 18 21  1  0
  8 10  1  0
 10 22  2  0
  5  6  1  0
 10 23  1  0
  7 11  1  0
 11 24  2  0
 24 25  1  0
  2  3  1  0
 25 26  2  0
 12 13  2  0
 26 27  1  0
  3  6  2  0
 27 28  2  0
 28 11  1  0
 13 14  1  0
 26 29  1  0
  1  2  2  0
 29 30  1  0
 14 15  2  0
 30 31  1  0
  5  4  2  0
 30 32  1  0
M  END

> <chembl_id>
CHEMBL1076694

> <chembl_pref_name>
None

$$$$

     RDKit          2D

 10 10  0  0  0  0  0  0  0  0999 V2000
    2.2527   -7.9458    0.0000 C   0  0  0  0  0  0  0  0  0  0  0  0
    2.2516   -8.7732    0.0000 N   0  0  0  0  0  0  0  0  0  0  0  0
    2.9664   -9.1860    0.0000 C   0  0  0  0  0  0  0  0  0  0  0  0
    3.6828   -8.7727    0.0000 C   0  0  0  0  0  0  0  0  0  0  0  0
    3.6800   -7.9422    0.0000 C   0  0  0  0  0  0  0  0  0  0  0  0
    2.9646   -7.5330    0.0000 C   0  0  0  0  0  0  0  0  0  0  0  0
    4.3929   -7.5270    0.0000 C   0  0  0  0  0  0  0  0  0  0  0  0
    5.1089   -7.9368    0.0000 N   0  0  0  0  0  0  0  0  0  0  0  0
    4.3898   -6.7020    0.0000 O   0  0  0  0  0  0  0  0  0  0  0  0
    5.1120   -8.7618    0.0000 N   0  0  0  0  0  0  0  0  0  0  0  0
  2  3  1  0
  5  6  2  0
  6  1  1  0
  1  2  2  0
  5  7  1  0
  3  4  2  0
  7  8  1  0
  7  9  2  0
  4  5  1  0
  8 10  1  0
M  ISO  1   7  11
M  END

> <chembl_id>
CHEMBL1090644

> <chembl_pref_name>
None

$$$$

     RDKit          2D

 36 40  0  0  0  0  0  0  0  0999 V2000
   -4.4579  -20.2330    0.0000 N   0  0  0  0  0  0  0  0  0  0  0  0
   -3.7424  -20.6438    0.0000 C   0  0  0  0  0  0  0  0  0  0  0  0
   -4.4579  -19.4075    0.0000 C   0  0  0  0  0  0  0  0  0  0  0  0
   -3.0268  -20.2330    0.0000 C   0  0  0  0  0  0  0  0  0  0  0  0
   -3.7424  -21.4694    0.0000 C   0  0  0  0  0  0  0  0  0  0  0  0
   -2.3113  -20.6438    0.0000 N   0  0  0  0  0  0  0  0  0  0  0  0
   -3.0268  -19.4075    0.0000 O   0  0  0  0  0  0  0  0  0  0  0  0
   -1.5957  -20.2330    0.0000 C   0  0  0  0  0  0  0  0  0  0  0  0
   -0.8802  -20.6438    0.0000 C   0  0  0  0  0  0  0  0  0  0  0  0
   -1.5957  -19.4075    0.0000 C   0  0  0  0  0  0  0  0  0  0  0  0
   -0.8802  -21.4694    0.0000 O   0  0  0  0  0  0  0  0  0  0  0  0
   -0.1688  -20.2330    0.0000 N   0  0  0  0  0  0  0  0  0  0  0  0
    0.5845  -20.5666    0.0000 C   0  0  0  0  0  0  0  0  0  0  0  0
    1.1383  -19.9561    0.0000 C   0  0  0  0  0  0  0  0  0  0  0  0
    0.7274  -19.2405    0.0000 C   0  0  0  0  0  0  0  0  0  0  0  0
   -0.0802  -19.4115    0.0000 C   0  0  0  0  0  0  0  0  0  0  0  0
    0.7593  -21.3742    0.0000 C   0  0  0  0  0  0  0  0  0  0  0  0
    0.2059  -21.9888    0.0000 S   0  0  0  0  0  0  0  0  0  0  0  0
    1.5101  -21.7125    0.0000 N   0  0  0  0  0  0  0  0  0  0  0  0
   -0.8821  -18.9997    0.0000 C   0  0  0  0  0  0  0  0  0  0  0  0
   -0.8801  -18.1777    0.0000 C   0  0  0  0  0  0  0  0  0  0  0  0
   -1.5932  -17.7611    0.0000 C   0  0  0  0  0  0  0  0  0  0  0  0
   -2.3100  -18.1726    0.0000 C   0  0  0  0  0  0  0  0  0  0  0  0
   -2.3137  -19.0008    0.0000 C   0  0  0  0  0  0  0  0  0  0  0  0
    1.4243  -22.5336    0.0000 C   0  0  0  0  0  0  0  0  0  0  0  0
    0.6169  -22.7032    0.0000 C   0  0  0  0  0  0  0  0  0  0  0  0
    0.3617  -23.4858    0.0000 C   0  0  0  0  0  0  0  0  0  0  0  0
    0.9128  -24.0995    0.0000 C   0  0  0  0  0  0  0  0  0  0  0  0
    1.7224  -23.9252    0.0000 C   0  0  0  0  0  0  0  0  0  0  0  0
    1.9739  -23.1428    0.0000 C   0  0  0  0  0  0  0  0  0  0  0  0
    2.7771  -22.9704    0.0000 C   0  0  0  0  0  0  0  0  0  0  0  0
    3.3232  -23.5809    0.0000 C   0  0  0  0  0  0  0  0  0  0  0  0
    4.1257  -23.4090    0.0000 C   0  0  0  0  0  0  0  0  0  0  0  0
    4.3786  -22.6266    0.0000 N   0  0  0  0  0  0  0  0  0  0  0  0
    3.8229  -22.0159    0.0000 C   0  0  0  0  0  0  0  0  0  0  0  0
    3.0225  -22.1909    0.0000 C   0  0  0  0  0  0  0  0  0  0  0  0
  8  9  1  0
  2  5  1  6
 18 26  1  0
 25 19  1  0
 19 17  2  0
 10 20  1  0
  8 10  1  1
  1  3  1  0
  9 11  2  0
  4  6  1  0
  9 12  1  0
 10 24  1  0
 20 21  1  0
 21 22  1  0
 22 23  1  0
 23 24  1  0
 12 13  1  0
  1  2  1  0
 25 26  2  0
  4  7  2  0
 26 27  1  0
  2  4  1  0
 27 28  2  0
  6  8  1  0
 28 29  1  0
 13 14  1  0
 29 30  2  0
 30 25  1  0
 14 15  1  0
 30 31  1  0
 15 16  1  0
 31 32  2  0
 16 12  1  0
 32 33  1  0
 33 34  2  0
 13 17  1  1
 34 35  1  0
 17 18  1  0
 35 36  2  0
 36 31  1  0
M  END

> <chembl_id>
CHEMBL1089694

> <chembl_pref_name>
None

$$$$

     RDKit          2D

 30 33  0  0  0  0  0  0  0  0999 V2000
    1.1457    0.3062    0.0000 O   0  0  0  0  0  0  0  0  0  0  0  0
    2.0128   -3.2094    0.0000 O   0  0  0  0  0  0  0  0  0  0  0  0
    2.5746   -0.5188    0.0000 N   0  0  0  0  0  0  0  0  0  0  0  0
    1.8602    1.5437    0.0000 N   0  0  0  0  0  0  0  0  0  0  0  0
    1.8602    4.0187    0.0000 N   0  0  0  0  0  0  0  0  0  0  0  0
    3.2421   -1.0037    0.0000 C   0  0  0  0  0  0  0  0  0  0  0  0
    1.9072   -1.0037    0.0000 C   0  0  0  0  0  0  0  0  0  0  0  0
    2.1621   -1.7883    0.0000 C   0  0  0  0  0  0  0  0  0  0  0  0
    2.9871   -1.7883    0.0000 C   0  0  0  0  0  0  0  0  0  0  0  0
    4.0267   -0.7487    0.0000 C   0  0  0  0  0  0  0  0  0  0  0  0
    2.5746    0.3062    0.0000 C   0  0  0  0  0  0  0  0  0  0  0  0
    1.8602    0.7187    0.0000 C   0  0  0  0  0  0  0  0  0  0  0  0
    1.6772   -2.4557    0.0000 C   0  0  0  0  0  0  0  0  0  0  0  0
    1.1226   -0.7487    0.0000 C   0  0  0  0  0  0  0  0  0  0  0  0
    4.1982    0.0582    0.0000 C   0  0  0  0  0  0  0  0  0  0  0  0
    4.6398   -1.3008    0.0000 C   0  0  0  0  0  0  0  0  0  0  0  0
    1.8602    3.1937    0.0000 C   0  0  0  0  0  0  0  0  0  0  0  0
    1.1457    1.9562    0.0000 C   0  0  0  0  0  0  0  0  0  0  0  0
    2.5746    1.9562    0.0000 C   0  0  0  0  0  0  0  0  0  0  0  0
    1.1457    2.7812    0.0000 C   0  0  0  0  0  0  0  0  0  0  0  0
    2.5746    2.7812    0.0000 C   0  0  0  0  0  0  0  0  0  0  0  0
    4.9829    0.3132    0.0000 C   0  0  0  0  0  0  0  0  0  0  0  0
    5.4244   -1.0458    0.0000 C   0  0  0  0  0  0  0  0  0  0  0  0
    0.8567   -2.3695    0.0000 C   0  0  0  0  0  0  0  0  0  0  0  0
    5.5959   -0.2389    0.0000 C   0  0  0  0  0  0  0  0  0  0  0  0
    1.1457    4.4312    0.0000 C   0  0  0  0  0  0  0  0  0  0  0  0
    2.5746    4.4312    0.0000 C   0  0  0  0  0  0  0  0  0  0  0  0
    1.1457    5.2562    0.0000 C   0  0  0  0  0  0  0  0  0  0  0  0
    2.5746    5.2562    0.0000 C   0  0  0  0  0  0  0  0  0  0  0  0
    1.8602    5.6687    0.0000 C   0  0  0  0  0  0  0  0  0  0  0  0
  1 12  2  0
  2 13  2  0
  3  6  1  0
  3  7  1  0
  3 11  1  0
  4 12  1  0
  4 18  1  0
  4 19  1  0
  5 17  1  0
  5 26  1  0
  5 27  1  0
  6  9  2  0
  6 10  1  0
  7  8  2  0
  7 14  1  0
  8  9  1  0
  8 13  1  0
 10 15  2  0
 10 16  1  0
 11 12  1  0
 13 24  1  0
 15 22  1  0
 16 23  2  0
 17 20  1  0
 17 21  1  0
 18 20  1  0
 19 21  1  0
 22 25  2  0
 23 25  1  0
 26 28  1  0
 27 29  1  0
 28 30  1  0
 29 30  1  0
M  END

> <chembl_id>
CHEMBL1440690

> <chembl_pref_name>
None

$$$$

     RDKit          2D

 36 40  0  0  0  0  0  0  0  0999 V2000
   13.7368   -8.3329    0.0000 N   0  0  0  0  0  0  0  0  0  0  0  0
   14.4519   -8.7443    0.0000 N   0  0  0  0  0  0  0  0  0  0  0  0
   14.4485   -9.5678    0.0000 C   0  0  0  0  0  0  0  0  0  0  0  0
   15.1628   -9.9791    0.0000 N   0  0  0  0  0  0  0  0  0  0  0  0
   15.1588   -8.3285    0.0000 C   0  0  0  0  0  0  0  0  0  0  0  0
   15.8736   -8.7361    0.0000 C   0  0  0  0  0  0  0  0  0  0  0  0
   15.8761   -9.5625    0.0000 C   0  0  0  0  0  0  0  0  0  0  0  0
   16.6628   -9.8155    0.0000 C   0  0  0  0  0  0  0  0  0  0  0  0
   17.1466   -9.1455    0.0000 N   0  0  0  0  0  0  0  0  0  0  0  0
   16.6588   -8.4785    0.0000 N   0  0  0  0  0  0  0  0  0  0  0  0
   15.1532   -7.5036    0.0000 O   0  0  0  0  0  0  0  0  0  0  0  0
   13.7321   -9.9805    0.0000 C   0  0  0  0  0  0  0  0  0  0  0  0
   13.0196   -9.5645    0.0000 C   0  0  0  0  0  0  0  0  0  0  0  0
   12.3059   -9.9748    0.0000 C   0  0  0  0  0  0  0  0  0  0  0  0
   12.3043  -10.7996    0.0000 C   0  0  0  0  0  0  0  0  0  0  0  0
   13.0223  -11.2124    0.0000 C   0  0  0  0  0  0  0  0  0  0  0  0
   13.7330  -10.7998    0.0000 C   0  0  0  0  0  0  0  0  0  0  0  0
   13.0266  -12.0408    0.0000 N   0  0  0  0  0  0  0  0  0  0  0  0
   13.7419  -12.4518    0.0000 O   0  0  0  0  0  0  0  0  0  0  0  0
   12.3129  -12.4547    0.0000 O   0  0  0  0  0  0  0  0  0  0  0  0
   17.0367  -10.5511    0.0000 C   0  0  0  0  0  0  0  0  0  0  0  0
   17.8605  -10.5955    0.0000 C   0  0  0  0  0  0  0  0  0  0  0  0
   18.2339  -11.3312    0.0000 C   0  0  0  0  0  0  0  0  0  0  0  0
   17.7812  -12.0198    0.0000 C   0  0  0  0  0  0  0  0  0  0  0  0
   18.1540  -12.7549    0.0000 C   0  0  0  0  0  0  0  0  0  0  0  0
   18.9786  -12.7999    0.0000 C   0  0  0  0  0  0  0  0  0  0  0  0
   19.4291  -12.1036    0.0000 C   0  0  0  0  0  0  0  0  0  0  0  0
   19.0539  -11.3713    0.0000 C   0  0  0  0  0  0  0  0  0  0  0  0
   13.7355   -7.5079    0.0000 C   0  0  0  0  0  0  0  0  0  0  0  0
   13.0204   -7.0966    0.0000 C   0  0  0  0  0  0  0  0  0  0  0  0
   14.4493   -7.0943    0.0000 O   0  0  0  0  0  0  0  0  0  0  0  0
   13.0214   -6.2712    0.0000 C   0  0  0  0  0  0  0  0  0  0  0  0
   12.3071   -5.8599    0.0000 C   0  0  0  0  0  0  0  0  0  0  0  0
   11.5923   -6.2736    0.0000 C   0  0  0  0  0  0  0  0  0  0  0  0
   11.5962   -7.1029    0.0000 C   0  0  0  0  0  0  0  0  0  0  0  0
   12.3111   -7.5104    0.0000 C   0  0  0  0  0  0  0  0  0  0  0  0
 17 12  1  0
  7  8  1  0
  8  9  2  0
 18 19  2  0
 18 20  1  0
 16 18  1  0
  9 10  1  0
  8 21  1  0
 10  6  1  0
 21 22  1  0
  6  5  1  0
 22 23  1  0
  5 11  2  0
 23 24  2  0
  5  2  1  0
 24 25  1  0
  3 12  1  0
 25 26  2  0
  6  7  2  0
 26 27  1  0
 12 13  2  0
 27 28  2  0
 28 23  1  0
  2  3  1  0
  1 29  1  0
 13 14  1  0
 29 30  1  0
  1  2  1  0
 29 31  2  0
 14 15  2  0
 30 32  2  0
  3  4  2  0
 32 33  1  0
 15 16  1  0
 33 34  2  0
  4  7  1  0
 34 35  1  0
 16 17  2  0
 35 36  2  0
 36 30  1  0
M  CHG  2  18   1  20  -1
M  END

> <chembl_id>
CHEMBL1080693

> <chembl_pref_name>
None

$$$$

     RDKit          2D

 23 26  0  0  0  0  0  0  0  0999 V2000
   -4.3533   -8.1097    0.0000 C   0  0  0  0  0  0  0  0  0  0  0  0
   -4.0447   -8.8733    0.0000 C   0  0  0  0  0  0  0  0  0  0  0  0
   -3.0270   -7.5689    0.0000 C   0  0  0  0  0  0  0  0  0  0  0  0
   -3.8502   -7.4495    0.0000 C   0  0  0  0  0  0  0  0  0  0  0  0
   -2.7101   -8.3407    0.0000 C   0  0  0  0  0  0  0  0  0  0  0  0
   -3.2250   -8.9937    0.0000 C   0  0  0  0  0  0  0  0  0  0  0  0
   -2.7602   -9.6747    0.0000 S   0  0  0  0  0  0  0  0  0  0  0  0
   -1.9323   -8.6234    0.0000 C   0  0  0  0  0  0  0  0  0  0  0  0
   -1.9663   -9.4484    0.0000 C   0  0  0  0  0  0  0  0  0  0  0  0
   -1.2771   -9.8926    0.0000 N   0  0  0  0  0  0  0  0  0  0  0  0
   -0.5452   -9.5048    0.0000 C   0  0  0  0  0  0  0  0  0  0  0  0
   -0.5151   -8.6765    0.0000 N   0  0  0  0  0  0  0  0  0  0  0  0
   -1.2133   -8.2443    0.0000 C   0  0  0  0  0  0  0  0  0  0  0  0
   -1.1826   -7.4130    0.0000 N   0  0  0  0  0  0  0  0  0  0  0  0
   -0.4462   -7.0198    0.0000 N   0  0  0  0  0  0  0  0  0  0  0  0
    0.2530   -7.4549    0.0000 C   0  0  0  0  0  0  0  0  0  0  0  0
    0.9795   -7.0670    0.0000 C   0  0  0  0  0  0  0  0  0  0  0  0
    1.6767   -7.5066    0.0000 C   0  0  0  0  0  0  0  0  0  0  0  0
    2.4027   -7.1193    0.0000 C   0  0  0  0  0  0  0  0  0  0  0  0
    2.4304   -6.2954    0.0000 C   0  0  0  0  0  0  0  0  0  0  0  0
    1.7262   -5.8602    0.0000 C   0  0  0  0  0  0  0  0  0  0  0  0
    1.0031   -6.2499    0.0000 C   0  0  0  0  0  0  0  0  0  0  0  0
    1.6470   -8.3296    0.0000 F   0  0  0  0  0  0  0  0  0  0  0  0
 10 11  2  0
 11 12  1  0
  1  2  1  0
 12 13  2  0
 13  8  1  0
  1  4  1  0
 13 14  1  0
  6  7  1  0
 14 15  1  0
  7  9  1  0
 15 16  2  0
  8  5  1  0
 16 17  1  0
  2  6  1  0
 17 18  2  0
  5  3  1  0
 18 19  1  0
  8  9  2  0
 19 20  2  0
  3  4  1  0
 20 21  1  0
  9 10  1  0
 21 22  2  0
 22 17  1  0
  5  6  2  0
 18 23  1  0
M  END

> <chembl_id>
CHEMBL1090594

> <chembl_pref_name>
None

$$$$

     RDKit          2D

 19 19  0  0  0  0  0  0  0  0999 V2000
    2.2393   -1.9250    0.0000 O   0  0  0  0  0  0  0  0  0  0  0  0
    3.6682    0.5500    0.0000 N   0  0  0  0  0  0  0  0  0  0  0  0
    3.6682   -1.1000    0.0000 N   0  0  0  0  0  0  0  0  0  0  0  0
    2.2393   -3.5750    0.0000 N   0  0  0  0  0  0  0  0  0  0  0  0
    4.3827    0.1375    0.0000 C   0  0  0  0  0  0  0  0  0  0  0  0
    2.9538    0.1375    0.0000 C   0  0  0  0  0  0  0  0  0  0  0  0
    4.3827   -0.6875    0.0000 C   0  0  0  0  0  0  0  0  0  0  0  0
    2.9538   -0.6875    0.0000 C   0  0  0  0  0  0  0  0  0  0  0  0
    3.6682    1.3750    0.0000 C   0  0  0  0  0  0  0  0  0  0  0  0
    4.3827    1.7875    0.0000 C   0  0  0  0  0  0  0  0  0  0  0  0
    3.6682   -1.9250    0.0000 C   0  0  0  0  0  0  0  0  0  0  0  0
    2.9538   -2.3375    0.0000 C   0  0  0  0  0  0  0  0  0  0  0  0
    4.3827    2.6125    0.0000 C   0  0  0  0  0  0  0  0  0  0  0  0
    5.0972    1.3750    0.0000 C   0  0  0  0  0  0  0  0  0  0  0  0
    2.9538   -3.1625    0.0000 C   0  0  0  0  0  0  0  0  0  0  0  0
    5.0972    3.0250    0.0000 C   0  0  0  0  0  0  0  0  0  0  0  0
    5.8116    1.7875    0.0000 C   0  0  0  0  0  0  0  0  0  0  0  0
    5.8116    2.6125    0.0000 C   0  0  0  0  0  0  0  0  0  0  0  0
    0.0000    0.0000    0.0000 Cl  0  0  0  0  0  0  0  0  0  0  0  0
  1 12  1  0
  2  5  1  0
  2  6  1  0
  2  9  1  0
  3  7  1  0
  3  8  1  0
  3 11  1  0
  4 15  1  0
  5  7  1  0
  6  8  1  0
  9 10  1  0
 10 13  2  0
 10 14  1  0
 11 12  1  0
 12 15  1  0
 13 16  1  0
 14 17  2  0
 16 18  2  0
 17 18  1  0
M  END

> <chembl_id>
CHEMBL1708799

> <chembl_pref_name>
None

$$$$

     RDKit          2D

 35 37  0  0  0  0  0  0  0  0999 V2000
    3.5504   -2.0868    0.0000 S   0  0  0  0  0  0  0  0  0  0  0  0
    3.9629   -2.8012    0.0000 O   0  0  0  0  0  0  0  0  0  0  0  0
    3.1379   -1.3723    0.0000 O   0  0  0  0  0  0  0  0  0  0  0  0
    4.2648    0.8007    0.0000 O   0  0  0  0  0  0  0  0  0  0  0  0
    2.8359   -2.4993    0.0000 N   0  0  0  0  0  0  0  0  0  0  0  0
    5.6938    0.8007    0.0000 N   0  0  0  0  0  0  0  0  0  0  0  0
    5.6938    3.2757    0.0000 N   0  0  0  0  0  0  0  0  0  0  0  0
    4.2648   -1.6743    0.0000 C   0  0  0  0  0  0  0  0  0  0  0  0
    4.9793   -0.4368    0.0000 C   0  0  0  0  0  0  0  0  0  0  0  0
    4.2648   -0.8493    0.0000 C   0  0  0  0  0  0  0  0  0  0  0  0
    2.8359   -3.3243    0.0000 C   0  0  0  0  0  0  0  0  0  0  0  0
    4.9793   -2.0868    0.0000 C   0  0  0  0  0  0  0  0  0  0  0  0
    4.9793    0.3882    0.0000 C   0  0  0  0  0  0  0  0  0  0  0  0
    3.5504   -3.7368    0.0000 C   0  0  0  0  0  0  0  0  0  0  0  0
    5.6938   -0.8493    0.0000 C   0  0  0  0  0  0  0  0  0  0  0  0
    5.6938   -1.6743    0.0000 C   0  0  0  0  0  0  0  0  0  0  0  0
    2.1214   -3.7368    0.0000 C   0  0  0  0  0  0  0  0  0  0  0  0
    5.6938    1.6257    0.0000 C   0  0  0  0  0  0  0  0  0  0  0  0
    3.5504   -4.5618    0.0000 C   0  0  0  0  0  0  0  0  0  0  0  0
    2.8359   -4.9743    0.0000 C   0  0  0  0  0  0  0  0  0  0  0  0
    2.1214   -4.5618    0.0000 C   0  0  0  0  0  0  0  0  0  0  0  0
    6.4083    2.0382    0.0000 C   0  0  0  0  0  0  0  0  0  0  0  0
    4.9793    2.0382    0.0000 C   0  0  0  0  0  0  0  0  0  0  0  0
    4.2648   -3.3243    0.0000 C   0  0  0  0  0  0  0  0  0  0  0  0
    6.4083    2.8632    0.0000 C   0  0  0  0  0  0  0  0  0  0  0  0
    4.9793    2.8632    0.0000 C   0  0  0  0  0  0  0  0  0  0  0  0
    5.6938    4.1007    0.0000 C   0  0  0  0  0  0  0  0  0  0  0  0
    6.4083    4.5132    0.0000 C   0  0  0  0  0  0  0  0  0  0  0  0
    2.8359   -5.7993    0.0000 C   0  0  0  0  0  0  0  0  0  0  0  0
    6.4083    5.3382    0.0000 C   0  0  0  0  0  0  0  0  0  0  0  0
    7.1227    4.1007    0.0000 C   0  0  0  0  0  0  0  0  0  0  0  0
    7.1227    5.7507    0.0000 C   0  0  0  0  0  0  0  0  0  0  0  0
    7.8372    4.5132    0.0000 C   0  0  0  0  0  0  0  0  0  0  0  0
    7.8372    5.3382    0.0000 C   0  0  0  0  0  0  0  0  0  0  0  0
    0.0000    0.0000    0.0000 Cl  0  0  0  0  0  0  0  0  0  0  0  0
  1  2  2  0
  1  3  2  0
  1  5  1  0
  1  8  1  0
  4 13  2  0
  5 11  1  0
  6 13  1  0
  6 18  1  0
  7 25  1  0
  7 26  1  0
  7 27  1  0
  8 10  1  0
  8 12  2  0
  9 10  2  0
  9 13  1  0
  9 15  1  0
 11 14  1  0
 11 17  2  0
 12 16  1  0
 14 19  2  0
 14 24  1  0
 15 16  2  0
 17 21  1  0
 18 22  1  0
 18 23  1  0
 19 20  1  0
 20 21  2  0
 20 29  1  0
 22 25  1  0
 23 26  1  0
 27 28  1  0
 28 30  2  0
 28 31  1  0
 30 32  1  0
 31 33  2  0
 32 34  2  0
 33 34  1  0
M  END

> <chembl_id>
CHEMBL1708566

> <chembl_pref_name>
None

$$$$

     RDKit          2D

 21 23  0  0  0  0  0  0  0  0999 V2000
   -0.8610    0.1961    0.0000 F   0  0  0  0  0  0  0  0  0  0  0  0
   -0.8610    3.0539    0.0000 F   0  0  0  0  0  0  0  0  0  0  0  0
    0.7890    0.1961    0.0000 O   0  0  0  0  0  0  0  0  0  0  0  0
    2.3960   -1.8691    0.0000 O   0  0  0  0  0  0  0  0  0  0  0  0
    2.0989    0.8635    0.0000 N   0  0  0  0  0  0  0  0  0  0  0  0
    1.6140    0.1961    0.0000 C   0  0  0  0  0  0  0  0  0  0  0  0
    2.0989   -0.4714    0.0000 C   0  0  0  0  0  0  0  0  0  0  0  0
    2.8835   -0.2164    0.0000 C   0  0  0  0  0  0  0  0  0  0  0  0
    2.8835    0.6086    0.0000 C   0  0  0  0  0  0  0  0  0  0  0  0
    0.3765    0.9105    0.0000 C   0  0  0  0  0  0  0  0  0  0  0  0
    3.5980   -0.6289    0.0000 C   0  0  0  0  0  0  0  0  0  0  0  0
    3.5980    1.0211    0.0000 C   0  0  0  0  0  0  0  0  0  0  0  0
    1.8440   -1.2560    0.0000 C   0  0  0  0  0  0  0  0  0  0  0  0
   -0.4485    0.9105    0.0000 C   0  0  0  0  0  0  0  0  0  0  0  0
    1.8440    1.6481    0.0000 C   0  0  0  0  0  0  0  0  0  0  0  0
    0.7890    1.6250    0.0000 C   0  0  0  0  0  0  0  0  0  0  0  0
    4.3125   -0.2164    0.0000 C   0  0  0  0  0  0  0  0  0  0  0  0
    4.3125    0.6086    0.0000 C   0  0  0  0  0  0  0  0  0  0  0  0
   -0.8610    1.6250    0.0000 C   0  0  0  0  0  0  0  0  0  0  0  0
   -0.4485    2.3395    0.0000 C   0  0  0  0  0  0  0  0  0  0  0  0
    0.3765    2.3395    0.0000 C   0  0  0  0  0  0  0  0  0  0  0  0
  1 14  1  0
  2 20  1  0
  3  6  1  0
  3 10  1  0
  4 13  2  0
  5  6  1  0
  5  9  1  0
  5 15  1  0
  6  7  2  0
  7  8  1  0
  7 13  1  0
  8  9  1  0
  8 11  2  0
  9 12  2  0
 10 14  1  0
 10 16  2  0
 11 17  1  0
 12 18  1  0
 14 19  2  0
 16 21  1  0
 17 18  2  0
 19 20  1  0
 20 21  2  0
M  END

> <chembl_id>
CHEMBL1345694

> <chembl_pref_name>
None

$$$$

     RDKit          2D

 15 15  0  0  0  0  0  0  0  0999 V2000
    2.8359   -2.2982    0.0000 O   0  0  0  0  0  0  0  0  0  0  0  0
    2.1214   -1.0607    0.0000 O   0  0  0  0  0  0  0  0  0  0  0  0
    2.8359    0.1768    0.0000 N   0  0  0  0  0  0  0  0  0  0  0  0
    4.2648    0.1768    0.0000 C   0  0  0  0  0  0  0  0  0  0  0  0
    3.5504   -0.2357    0.0000 C   0  0  0  0  0  0  0  0  0  0  0  0
    4.2648    1.0018    0.0000 C   0  0  0  0  0  0  0  0  0  0  0  0
    4.9793   -0.2357    0.0000 C   0  0  0  0  0  0  0  0  0  0  0  0
    3.5504    1.4143    0.0000 C   0  0  0  0  0  0  0  0  0  0  0  0
    3.5504   -1.0607    0.0000 C   0  0  0  0  0  0  0  0  0  0  0  0
    4.9793    1.4143    0.0000 C   0  0  0  0  0  0  0  0  0  0  0  0
    2.8359    1.0018    0.0000 C   0  0  0  0  0  0  0  0  0  0  0  0
    5.6938    0.1768    0.0000 C   0  0  0  0  0  0  0  0  0  0  0  0
    2.8359   -1.4732    0.0000 C   0  0  0  0  0  0  0  0  0  0  0  0
    5.6938    1.0018    0.0000 C   0  0  0  0  0  0  0  0  0  0  0  0
    0.0000    0.0000    0.0000 Cl  0  0  0  0  0  0  0  0  0  0  0  0
  1 13  2  0
  2 13  1  0
  3  5  1  0
  3 11  1  0
  4  5  1  0
  4  6  1  0
  4  7  2  0
  5  9  1  0
  6  8  1  0
  6 10  2  0
  7 12  1  0
  8 11  1  0
  9 13  1  0
 10 14  1  0
 12 14  2  0
M  END

> <chembl_id>
CHEMBL1715026

> <chembl_pref_name>
None

$$$$

     RDKit          2D

 21 24  0  0  0  0  0  0  0  0999 V2000
    1.3779   -5.4845    0.0000 C   0  0  0  0  0  0  0  0  0  0  0  0
    2.0984   -6.7339    0.0000 N   0  0  0  0  0  0  0  0  0  0  0  0
    0.6658   -5.9051    0.0000 C   0  0  0  0  0  0  0  0  0  0  0  0
    2.0984   -5.9051    0.0000 C   0  0  0  0  0  0  0  0  0  0  0  0
    0.6658   -6.7297    0.0000 C   0  0  0  0  0  0  0  0  0  0  0  0
    1.3779   -7.1462    0.0000 C   0  0  0  0  0  0  0  0  0  0  0  0
    2.0901   -5.0722    0.0000 C   0  0  0  0  0  0  0  0  0  0  0  0
    0.7907   -4.8973    0.0000 O   0  0  0  0  0  0  0  0  0  0  0  0
    2.7106   -7.2836    0.0000 C   0  0  0  0  0  0  0  0  0  0  0  0
   -0.0463   -5.4928    0.0000 C   0  0  0  0  0  0  0  0  0  0  0  0
   -0.0463   -7.1462    0.0000 C   0  0  0  0  0  0  0  0  0  0  0  0
    1.5487   -7.9541    0.0000 C   0  0  0  0  0  0  0  0  0  0  0  0
    2.3733   -8.0458    0.0000 C   0  0  0  0  0  0  0  0  0  0  0  0
    2.8105   -5.4803    0.0000 C   0  0  0  0  0  0  0  0  0  0  0  0
    2.0776   -4.2476    0.0000 C   0  0  0  0  0  0  0  0  0  0  0  0
   -0.7585   -6.7339    0.0000 C   0  0  0  0  0  0  0  0  0  0  0  0
   -0.7585   -5.9051    0.0000 C   0  0  0  0  0  0  0  0  0  0  0  0
    2.7898   -3.8311    0.0000 C   0  0  0  0  0  0  0  0  0  0  0  0
    3.5144   -5.0597    0.0000 C   0  0  0  0  0  0  0  0  0  0  0  0
    3.5102   -4.2351    0.0000 C   0  0  0  0  0  0  0  0  0  0  0  0
    0.6658   -7.5543    0.0000 H   0  0  0  0  0  0  0  0  0  0  0  0
  2  4  1  0
  3  1  1  0
  4  1  1  0
  5  3  1  0
  6  2  1  0
  1  7  1  6
  1  8  1  1
  9  2  1  0
 10  3  2  0
 11  5  2  0
 12  6  1  0
 13  9  1  0
 14  7  2  0
 15  7  1  0
 16 17  2  0
 17 10  1  0
 18 15  2  0
 19 14  1  0
 20 18  1  0
  6 21  1  6
  6  5  1  0
 20 19  2  0
 13 12  1  0
 16 11  1  0
M  END

> <chembl_id>
CHEMBL36184

> <chembl_pref_name>
None

$$$$

     RDKit          2D

 25 26  0  0  0  0  0  0  0  0999 V2000
    8.5167   -4.8125    0.0000 C   0  0  0  0  0  0  0  0  0  0  0  0
    7.8042   -4.4000    0.0000 C   0  0  0  0  0  0  0  0  0  0  0  0
    9.2417   -5.2292    0.0000 C   0  0  0  0  0  0  0  0  0  0  0  0
    7.0917   -4.8125    0.0000 N   0  0  0  0  0  0  0  0  0  0  0  0
    4.9417   -3.5667    0.0000 C   0  0  0  0  0  0  0  0  0  0  0  0
    4.2167   -3.1500    0.0000 C   0  0  0  0  0  0  0  0  0  0  0  0
    6.3667   -4.3917    0.0000 C   0  0  0  0  0  0  0  0  0  0  0  0
    4.9417   -4.3917    0.0000 C   0  0  0  0  0  0  0  0  0  0  0  0
    5.6542   -4.8042    0.0000 C   0  0  0  0  0  0  0  0  0  0  0  0
    7.8042   -3.5667    0.0000 O   0  0  0  0  0  0  0  0  0  0  0  0
    5.6542   -3.1542    0.0000 C   0  0  0  0  0  0  0  0  0  0  0  0
    4.2167   -2.3167    0.0000 O   0  0  0  0  0  0  0  0  0  0  0  0
    6.3667   -3.5667    0.0000 C   0  0  0  0  0  0  0  0  0  0  0  0
    3.5042   -3.5625    0.0000 C   0  0  0  0  0  0  0  0  0  0  0  0
    9.6542   -4.5042    0.0000 F   0  0  0  0  0  0  0  0  0  0  0  0
    9.9625   -5.6417    0.0000 F   0  0  0  0  0  0  0  0  0  0  0  0
    8.8250   -5.9500    0.0000 F   0  0  0  0  0  0  0  0  0  0  0  0
    8.1042   -5.5292    0.0000 O   0  0  0  0  0  0  0  0  0  0  0  0
    8.9375   -4.0917    0.0000 C   0  0  0  0  0  0  0  0  0  0  0  0
    5.6542   -5.6292    0.0000 C   0  0  0  0  0  0  0  0  0  0  0  0
    2.7917   -3.1500    0.0000 C   0  0  0  0  0  0  0  0  0  0  0  0
    3.5042   -4.3917    0.0000 C   0  0  0  0  0  0  0  0  0  0  0  0
    2.7917   -4.8042    0.0000 C   0  0  0  0  0  0  0  0  0  0  0  0
    2.0792   -3.5625    0.0000 C   0  0  0  0  0  0  0  0  0  0  0  0
    2.0792   -4.3917    0.0000 C   0  0  0  0  0  0  0  0  0  0  0  0
  2  1  1  0
  3  1  1  0
  4  2  1  0
  5 11  2  0
  6  5  1  0
  7  4  1  0
  8  9  2  0
  9  7  1  0
 10  2  2  0
 11 13  1  0
 12  6  2  0
 13  7  2  0
 14  6  1  0
 15  3  1  0
 16  3  1  0
 17  3  1  0
 18  1  1  0
 19  1  1  0
 20  9  1  0
 21 14  2  0
 22 14  1  0
 23 22  2  0
 24 21  1  0
 25 23  1  0
  8  5  1  0
 25 24  2  0
M  END

> <chembl_id>
CHEMBL140694

> <chembl_pref_name>
None

$$$$

     RDKit          2D

 34 37  0  0  0  0  0  0  0  0999 V2000
    0.1761    2.6994    0.0000 S   0  0  0  0  0  0  0  0  0  0  0  0
    3.7485    2.2869    0.0000 S   0  0  0  0  0  0  0  0  0  0  0  0
   -0.2364    1.9850    0.0000 O   0  0  0  0  0  0  0  0  0  0  0  0
    0.5886    3.4139    0.0000 O   0  0  0  0  0  0  0  0  0  0  0  0
   -1.9673    3.9369    0.0000 O   0  0  0  0  0  0  0  0  0  0  0  0
   -0.5383    3.1119    0.0000 N   0  0  0  0  0  0  0  0  0  0  0  0
    3.0340    1.0494    0.0000 N   0  0  0  0  0  0  0  0  0  0  0  0
    4.4630    1.0494    0.0000 N   0  0  0  0  0  0  0  0  0  0  0  0
    0.8906    2.2869    0.0000 C   0  0  0  0  0  0  0  0  0  0  0  0
    1.6051    2.6994    0.0000 C   0  0  0  0  0  0  0  0  0  0  0  0
    0.8906    1.4619    0.0000 C   0  0  0  0  0  0  0  0  0  0  0  0
    2.3196    1.4619    0.0000 C   0  0  0  0  0  0  0  0  0  0  0  0
   -0.5383    3.9369    0.0000 C   0  0  0  0  0  0  0  0  0  0  0  0
   -1.2528    2.6994    0.0000 C   0  0  0  0  0  0  0  0  0  0  0  0
    2.3196    2.2869    0.0000 C   0  0  0  0  0  0  0  0  0  0  0  0
    1.6051    1.0494    0.0000 C   0  0  0  0  0  0  0  0  0  0  0  0
    6.6064    1.4619    0.0000 C   0  0  0  0  0  0  0  0  0  0  0  0
   -1.2528    4.3494    0.0000 C   0  0  0  0  0  0  0  0  0  0  0  0
   -1.9673    3.1119    0.0000 C   0  0  0  0  0  0  0  0  0  0  0  0
    7.3209    1.0494    0.0000 C   0  0  0  0  0  0  0  0  0  0  0  0
    6.6064    2.2869    0.0000 C   0  0  0  0  0  0  0  0  0  0  0  0
    3.7485    1.4619    0.0000 C   0  0  0  0  0  0  0  0  0  0  0  0
    5.8919    1.0494    0.0000 C   0  0  0  0  0  0  0  0  0  0  0  0
    8.0353    1.4619    0.0000 C   0  0  0  0  0  0  0  0  0  0  0  0
    5.8919    2.6994    0.0000 C   0  0  0  0  0  0  0  0  0  0  0  0
    7.3209    0.2244    0.0000 C   0  0  0  0  0  0  0  0  0  0  0  0
    7.3209    2.6994    0.0000 C   0  0  0  0  0  0  0  0  0  0  0  0
    5.1774    1.4619    0.0000 C   0  0  0  0  0  0  0  0  0  0  0  0
    8.7498    1.0494    0.0000 C   0  0  0  0  0  0  0  0  0  0  0  0
    5.8919    3.5244    0.0000 C   0  0  0  0  0  0  0  0  0  0  0  0
    8.0353   -0.1881    0.0000 C   0  0  0  0  0  0  0  0  0  0  0  0
    7.3209    3.5244    0.0000 C   0  0  0  0  0  0  0  0  0  0  0  0
    8.7498    0.2244    0.0000 C   0  0  0  0  0  0  0  0  0  0  0  0
    6.6064    3.9369    0.0000 C   0  0  0  0  0  0  0  0  0  0  0  0
  1  3  2  0
  1  4  2  0
  1  6  1  0
  1  9  1  0
  2 22  2  0
  5 18  1  0
  5 19  1  0
  6 13  1  0
  6 14  1  0
  7 12  1  0
  7 22  1  0
  8 22  1  0
  8 28  1  0
  9 10  2  0
  9 11  1  0
 10 15  1  0
 11 16  2  0
 12 15  2  0
 12 16  1  0
 13 18  1  0
 14 19  1  0
 17 20  1  0
 17 21  1  0
 17 23  1  0
 20 24  2  0
 20 26  1  0
 21 25  2  0
 21 27  1  0
 23 28  1  0
 24 29  1  0
 25 30  1  0
 26 31  2  0
 27 32  2  0
 29 33  2  0
 30 34  2  0
 31 33  1  0
 32 34  1  0
M  END

> <chembl_id>
CHEMBL1340694

> <chembl_pref_name>
None

$$$$

     RDKit          2D

 20 22  0  0  0  0  0  0  0  0999 V2000
   -2.5032   -2.7235    0.0000 O   0  0  0  0  0  0  0  0  0  0  0  0
   -2.5503    1.4739    0.0000 O   0  0  0  0  0  0  0  0  0  0  0  0
   -1.1213   -1.0011    0.0000 N   0  0  0  0  0  0  0  0  0  0  0  0
   -0.4068    1.0614    0.0000 C   0  0  0  0  0  0  0  0  0  0  0  0
   -1.1213   -0.1761    0.0000 C   0  0  0  0  0  0  0  0  0  0  0  0
    0.3076    1.4739    0.0000 C   0  0  0  0  0  0  0  0  0  0  0  0
   -0.4068    0.2364    0.0000 C   0  0  0  0  0  0  0  0  0  0  0  0
   -1.8358    1.0614    0.0000 C   0  0  0  0  0  0  0  0  0  0  0  0
   -1.1213    1.4739    0.0000 C   0  0  0  0  0  0  0  0  0  0  0  0
   -1.8358    0.2364    0.0000 C   0  0  0  0  0  0  0  0  0  0  0  0
   -1.8358   -2.2386    0.0000 C   0  0  0  0  0  0  0  0  0  0  0  0
    0.3076    2.2989    0.0000 C   0  0  0  0  0  0  0  0  0  0  0  0
    1.0221    1.0614    0.0000 C   0  0  0  0  0  0  0  0  0  0  0  0
   -1.8358   -1.4136    0.0000 C   0  0  0  0  0  0  0  0  0  0  0  0
   -1.1683   -2.7235    0.0000 C   0  0  0  0  0  0  0  0  0  0  0  0
    1.0221    2.7114    0.0000 C   0  0  0  0  0  0  0  0  0  0  0  0
    1.7366    1.4739    0.0000 C   0  0  0  0  0  0  0  0  0  0  0  0
   -2.2483   -3.5081    0.0000 C   0  0  0  0  0  0  0  0  0  0  0  0
   -1.4233   -3.5081    0.0000 C   0  0  0  0  0  0  0  0  0  0  0  0
    1.7366    2.2989    0.0000 C   0  0  0  0  0  0  0  0  0  0  0  0
  1 11  1  0
  1 18  1  0
  2  8  2  0
  3  5  1  0
  3 14  1  0
  4  6  1  0
  4  7  1  0
  4  9  1  0
  5  7  1  0
  5 10  2  0
  6 12  2  0
  6 13  1  0
  8  9  1  0
  8 10  1  0
 11 14  1  0
 11 15  1  0
 12 16  1  0
 13 17  2  0
 15 19  1  0
 16 20  2  0
 17 20  1  0
 18 19  1  0
M  END

> <chembl_id>
CHEMBL1700694

> <chembl_pref_name>
None

$$$$

     RDKit          2D

 27 28  0  0  0  0  0  0  0  0999 V2000
   23.5665  -16.9134    0.0000 Cl  0  0  0  0  0  0  0  0  0  0  0  0
   23.8306  -14.7879    0.0000 C   0  0  0  0  0  0  0  0  0  0  0  0
   23.8306  -15.6051    0.0000 C   0  0  0  0  0  0  0  0  0  0  0  0
   24.5359  -16.0095    0.0000 C   0  0  0  0  0  0  0  0  0  0  0  0
   24.5359  -14.3751    0.0000 C   0  0  0  0  0  0  0  0  0  0  0  0
   25.2412  -14.7879    0.0000 C   0  0  0  0  0  0  0  0  0  0  0  0
   25.2377  -15.6050    0.0000 C   0  0  0  0  0  0  0  0  0  0  0  0
   25.9398  -16.0144    0.0000 C   0  0  0  0  0  0  0  0  0  0  0  0
   26.6498  -15.6110    0.0000 N   0  0  0  0  0  0  0  0  0  0  0  0
   26.6533  -14.7939    0.0000 C   0  0  0  0  0  0  0  0  0  0  0  0
   25.9467  -14.3800    0.0000 C   0  0  0  0  0  0  0  0  0  0  0  0
   25.2339  -13.9707    0.0000 H   0  0  0  0  0  0  0  0  0  0  0  0
   25.2297  -16.4181    0.0000 H   0  0  0  0  0  0  0  0  0  0  0  0
   27.3631  -14.3890    0.0000 C   0  0  0  0  0  0  0  0  0  0  0  0
   28.0698  -14.7991    0.0000 O   0  0  0  0  0  0  0  0  0  0  0  0
   27.3686  -13.5696    0.0000 O   0  0  0  0  0  0  0  0  0  0  0  0
   23.1217  -14.3813    0.0000 O   0  0  0  0  0  0  0  0  0  0  0  0
   22.4152  -14.7920    0.0000 C   0  0  0  0  0  0  0  0  0  0  0  0
   21.7069  -14.3824    0.0000 C   0  0  0  0  0  0  0  0  0  0  0  0
   21.0009  -14.7924    0.0000 C   0  0  0  0  0  0  0  0  0  0  0  0
   21.0028  -15.6104    0.0000 C   0  0  0  0  0  0  0  0  0  0  0  0
   21.7167  -16.0168    0.0000 C   0  0  0  0  0  0  0  0  0  0  0  0
   22.4198  -15.6044    0.0000 C   0  0  0  0  0  0  0  0  0  0  0  0
   21.7073  -13.5630    0.0000 C   0  0  0  0  0  0  0  0  0  0  0  0
   22.4146  -13.1538    0.0000 O   0  0  0  0  0  0  0  0  0  0  0  0
   20.9992  -13.1550    0.0000 O   0  0  0  0  0  0  0  0  0  0  0  0
   21.7220  -16.8339    0.0000 C   0  0  0  0  0  0  0  0  0  0  0  0
  2  3  1  0
  2  5  1  0
  3  4  1  0
  4  7  1  0
  6  5  1  0
  6  7  1  0
  6 11  1  0
  7  8  1  0
  8  9  1  0
  9 10  1  0
 10 11  1  0
  6 12  1  1
  7 13  1  1
 10 14  1  1
 14 15  1  0
 14 16  2  0
  2 17  1  6
 17 18  1  0
 18 19  2  0
 19 20  1  0
 20 21  2  0
 21 22  1  0
 22 23  2  0
 23 18  1  0
 24 25  1  0
 24 26  2  0
 19 24  1  0
 22 27  1  0
M  END

> <chembl_id>
CHEMBL2440701

> <chembl_pref_name>
None

$$$$

     RDKit          2D

135141  0  0  0  0  0  0  0  0999 V2000
   22.5058   -7.2881    0.0000 F   0  0  0  0  0  0  0  0  0  0  0  0
   24.6322   -7.6804    0.0000 O   0  0  0  0  0  0  0  0  0  0  0  0
   23.9379   -8.9169    0.0000 O   0  0  0  0  0  0  0  0  0  0  0  0
   23.2162   -7.6985    0.0000 C   0  0  0  0  0  0  0  0  0  0  0  0
   23.9288   -8.0986    0.0000 C   0  0  0  0  0  0  0  0  0  0  0  0
   22.5135   -8.1156    0.0000 F   0  0  0  0  0  0  0  0  0  0  0  0
   23.2065   -6.8814    0.0000 F   0  0  0  0  0  0  0  0  0  0  0  0
   15.5041  -12.8704    0.0000 C   0  0  0  0  0  0  0  0  0  0  0  0
    2.7889   -7.0789    0.0000 C   0  0  0  0  0  0  0  0  0  0  0  0
   38.1162   -7.8966    0.0000 C   0  0  0  0  0  0  0  0  0  0  0  0
   19.7425  -12.0795    0.0000 C   0  0  0  0  0  0  0  0  0  0  0  0
   38.1257   -9.5327    0.0000 C   0  0  0  0  0  0  0  0  0  0  0  0
   28.9275  -13.2570    0.0000 O   0  0  0  0  0  0  0  0  0  0  0  0
   20.4527  -10.8604    0.0000 C   0  0  0  0  0  0  0  0  0  0  0  0
    6.3754   -6.6747    0.0000 C   0  0  0  0  0  0  0  0  0  0  0  0
   31.7500  -13.2405    0.0000 C   0  0  0  0  0  0  0  0  0  0  0  0
    2.7747  -10.3513    0.0000 O   0  0  0  0  0  0  0  0  0  0  0  0
   39.5393  -10.3456    0.0000 C   0  0  0  0  0  0  0  0  0  0  0  0
   12.6816  -12.8538    0.0000 C   0  0  0  0  0  0  0  0  0  0  0  0
    6.3237   -9.1281    0.0000 C   0  0  0  0  0  0  0  0  0  0  0  0
   24.6935  -11.6552    0.0000 C   0  0  0  0  0  0  0  0  0  0  0  0
   38.8158   -6.6639    0.0000 C   0  0  0  0  0  0  0  0  0  0  0  0
   16.9200  -12.0667    0.0000 C   0  0  0  0  0  0  0  0  0  0  0  0
   39.5319   -7.8932    0.0000 C   0  0  0  0  0  0  0  0  0  0  0  0
    4.1982  -10.3552    0.0000 C   0  0  0  0  0  0  0  0  0  0  0  0
   23.9821  -12.0667    0.0000 C   0  0  0  0  0  0  0  0  0  0  0  0
   -0.0658  -10.3417    0.0000 C   0  0  0  0  0  0  0  0  0  0  0  0
   39.5320   -7.0767    0.0000 C   0  0  0  0  0  0  0  0  0  0  0  0
   31.0429  -12.8373    0.0000 O   0  0  0  0  0  0  0  0  0  0  0  0
   15.5051  -12.0602    0.0000 C   0  0  0  0  0  0  0  0  0  0  0  0
    5.6558   -7.0739    0.0000 C   0  0  0  0  0  0  0  0  0  0  0  0
    4.9074   -9.1300    0.0000 C   0  0  0  0  0  0  0  0  0  0  0  0
   21.8666  -11.6688    0.0000 C   0  0  0  0  0  0  0  0  0  0  0  0
    7.7369  -13.2333    0.0000 N   0  0  0  0  0  0  0  0  0  0  0  0
   35.2410   -7.0739    0.0000 C   0  0  0  0  0  0  0  0  0  0  0  0
   35.9953  -10.7659    0.0000 C   0  0  0  0  0  0  0  0  0  0  0  0
   35.2849   -9.5412    0.0000 N   0  0  0  0  0  0  0  0  0  0  0  0
   19.0355  -11.6688    0.0000 C   0  0  0  0  0  0  0  0  0  0  0  0
   36.0032  -13.2217    0.0000 N   0  0  0  0  0  0  0  0  0  0  0  0
   11.2682  -12.8455    0.0000 C   0  0  0  0  0  0  0  0  0  0  0  0
   40.2526  -10.7517    0.0000 C   0  0  0  0  0  0  0  0  0  0  0  0
   17.6263  -11.6624    0.0000 C   0  0  0  0  0  0  0  0  0  0  0  0
   27.5183  -13.2653    0.0000 C   0  0  0  0  0  0  0  0  0  0  0  0
   33.8156   -7.1032    0.0000 C   0  0  0  0  0  0  0  0  0  0  0  0
    9.1521  -13.2405    0.0000 C   0  0  0  0  0  0  0  0  0  0  0  0
   40.9563   -9.5223    0.0000 C   0  0  0  0  0  0  0  0  0  0  0  0
   40.9610  -10.3417    0.0000 C   0  0  0  0  0  0  0  0  0  0  0  0
   37.4114   -9.1242    0.0000 N   0  0  0  0  0  0  0  0  0  0  0  0
   23.9874  -12.8824    0.0000 C   0  0  0  0  0  0  0  0  0  0  0  0
    4.2024   -9.5391    0.0000 C   0  0  0  0  0  0  0  0  0  0  0  0
   34.5702   -9.1281    0.0000 C   0  0  0  0  0  0  0  0  0  0  0  0
    2.0694   -9.1185    0.0000 C   0  0  0  0  0  0  0  0  0  0  0  0
    5.6165   -9.5412    0.0000 N   0  0  0  0  0  0  0  0  0  0  0  0
   34.5053   -5.8600    0.0000 O   0  0  0  0  0  0  0  0  0  0  0  0
    8.4457  -12.8290    0.0000 C   0  0  0  0  0  0  0  0  0  0  0  0
   24.6980  -13.2850    0.0000 C   0  0  0  0  0  0  0  0  0  0  0  0
    7.0295  -12.8233    0.0000 C   0  0  0  0  0  0  0  0  0  0  0  0
    7.0346  -12.0046    0.0000 O   0  0  0  0  0  0  0  0  0  0  0  0
   19.7498  -10.4497    0.0000 C   0  0  0  0  0  0  0  0  0  0  0  0
   33.8349   -7.9208    0.0000 C   0  0  0  0  0  0  0  0  0  0  0  0
   32.4563  -12.8290    0.0000 C   0  0  0  0  0  0  0  0  0  0  0  0
   10.5613  -13.2488    0.0000 C   0  0  0  0  0  0  0  0  0  0  0  0
   -0.0622   -9.5223    0.0000 C   0  0  0  0  0  0  0  0  0  0  0  0
    5.6382   -7.8904    0.0000 C   0  0  0  0  0  0  0  0  0  0  0  0
   35.9894   -9.1300    0.0000 C   0  0  0  0  0  0  0  0  0  0  0  0
   26.1050  -13.2736    0.0000 C   0  0  0  0  0  0  0  0  0  0  0  0
    4.8964  -13.2217    0.0000 N   0  0  0  0  0  0  0  0  0  0  0  0
   23.2720  -10.8476    0.0000 O   0  0  0  0  0  0  0  0  0  0  0  0
   36.6980   -9.5391    0.0000 C   0  0  0  0  0  0  0  0  0  0  0  0
   30.3408  -13.2488    0.0000 C   0  0  0  0  0  0  0  0  0  0  0  0
   38.8305   -9.1185    0.0000 C   0  0  0  0  0  0  0  0  0  0  0  0
   38.1115   -7.0789    0.0000 C   0  0  0  0  0  0  0  0  0  0  0  0
   29.6338  -12.8455    0.0000 C   0  0  0  0  0  0  0  0  0  0  0  0
   33.1652  -13.2333    0.0000 N   0  0  0  0  0  0  0  0  0  0  0  0
    0.6482  -10.7517    0.0000 C   0  0  0  0  0  0  0  0  0  0  0  0
    9.8591  -12.8373    0.0000 O   0  0  0  0  0  0  0  0  0  0  0  0
    6.3920   -5.8600    0.0000 O   0  0  0  0  0  0  0  0  0  0  0  0
   40.2457   -9.1144    0.0000 C   0  0  0  0  0  0  0  0  0  0  0  0
   34.5220   -6.6747    0.0000 C   0  0  0  0  0  0  0  0  0  0  0  0
    4.8988  -11.5857    0.0000 C   0  0  0  0  0  0  0  0  0  0  0  0
   35.2568   -7.8904    0.0000 C   0  0  0  0  0  0  0  0  0  0  0  0
    6.3421   -8.3098    0.0000 C   0  0  0  0  0  0  0  0  0  0  0  0
   13.3838  -13.2653    0.0000 C   0  0  0  0  0  0  0  0  0  0  0  0
    2.0727   -8.2999    0.0000 C   0  0  0  0  0  0  0  0  0  0  0  0
    1.3667   -7.0767    0.0000 C   0  0  0  0  0  0  0  0  0  0  0  0
   14.7970  -13.2736    0.0000 C   0  0  0  0  0  0  0  0  0  0  0  0
   19.7535   -9.6348    0.0000 N   0  0  0  0  0  0  0  0  0  0  0  0
    3.4857   -9.1242    0.0000 N   0  0  0  0  0  0  0  0  0  0  0  0
   26.8072  -12.8621    0.0000 N   0  0  0  0  0  0  0  0  0  0  0  0
   18.3292  -12.0730    0.0000 N   0  0  0  0  0  0  0  0  0  0  0  0
   35.9973  -11.5857    0.0000 C   0  0  0  0  0  0  0  0  0  0  0  0
   34.5797  -13.2274    0.0000 N   0  0  0  0  0  0  0  0  0  0  0  0
   25.3980  -12.8704    0.0000 C   0  0  0  0  0  0  0  0  0  0  0  0
   38.1223  -10.3513    0.0000 O   0  0  0  0  0  0  0  0  0  0  0  0
   16.2041  -13.2850    0.0000 C   0  0  0  0  0  0  0  0  0  0  0  0
   21.1596  -12.0795    0.0000 C   0  0  0  0  0  0  0  0  0  0  0  0
   38.8254   -8.2999    0.0000 C   0  0  0  0  0  0  0  0  0  0  0  0
   16.2086  -11.6552    0.0000 C   0  0  0  0  0  0  0  0  0  0  0  0
   34.5554   -8.3098    0.0000 C   0  0  0  0  0  0  0  0  0  0  0  0
    1.3595  -10.3456    0.0000 C   0  0  0  0  0  0  0  0  0  0  0  0
   35.9874   -8.3103    0.0000 O   0  0  0  0  0  0  0  0  0  0  0  0
   23.2758  -11.6624    0.0000 C   0  0  0  0  0  0  0  0  0  0  0  0
   33.8709  -12.8233    0.0000 C   0  0  0  0  0  0  0  0  0  0  0  0
   26.1098  -14.0885    0.0000 O   0  0  0  0  0  0  0  0  0  0  0  0
   11.9746  -13.2570    0.0000 O   0  0  0  0  0  0  0  0  0  0  0  0
   35.2946  -12.8168    0.0000 C   0  0  0  0  0  0  0  0  0  0  0  0
    5.6077  -11.9970    0.0000 N   0  0  0  0  0  0  0  0  0  0  0  0
    1.3664   -9.5268    0.0000 C   0  0  0  0  0  0  0  0  0  0  0  0
   28.2205  -12.8538    0.0000 C   0  0  0  0  0  0  0  0  0  0  0  0
   14.7923  -14.0885    0.0000 O   0  0  0  0  0  0  0  0  0  0  0  0
   25.3970  -12.0602    0.0000 C   0  0  0  0  0  0  0  0  0  0  0  0
    6.3166  -13.2274    0.0000 N   0  0  0  0  0  0  0  0  0  0  0  0
    2.0797   -6.6639    0.0000 C   0  0  0  0  0  0  0  0  0  0  0  0
   20.4498  -11.6752    0.0000 N   0  0  0  0  0  0  0  0  0  0  0  0
   22.5729  -12.0730    0.0000 N   0  0  0  0  0  0  0  0  0  0  0  0
   36.7020  -10.3552    0.0000 C   0  0  0  0  0  0  0  0  0  0  0  0
    2.7698   -9.5327    0.0000 C   0  0  0  0  0  0  0  0  0  0  0  0
    7.0600   -7.9208    0.0000 C   0  0  0  0  0  0  0  0  0  0  0  0
    4.9051  -10.7659    0.0000 C   0  0  0  0  0  0  0  0  0  0  0  0
    1.3668   -7.8932    0.0000 C   0  0  0  0  0  0  0  0  0  0  0  0
   16.9147  -12.8824    0.0000 C   0  0  0  0  0  0  0  0  0  0  0  0
    5.6013  -12.8168    0.0000 C   0  0  0  0  0  0  0  0  0  0  0  0
   33.8674  -12.0046    0.0000 O   0  0  0  0  0  0  0  0  0  0  0  0
   35.2927  -11.9970    0.0000 N   0  0  0  0  0  0  0  0  0  0  0  0
    2.7852   -7.8966    0.0000 C   0  0  0  0  0  0  0  0  0  0  0  0
   39.5323   -9.5268    0.0000 C   0  0  0  0  0  0  0  0  0  0  0  0
   17.6301  -10.8476    0.0000 O   0  0  0  0  0  0  0  0  0  0  0  0
   14.0949  -12.8621    0.0000 N   0  0  0  0  0  0  0  0  0  0  0  0
    7.0824   -7.1032    0.0000 C   0  0  0  0  0  0  0  0  0  0  0  0
    4.9139   -8.3103    0.0000 O   0  0  0  0  0  0  0  0  0  0  0  0
    0.6549   -9.1144    0.0000 C   0  0  0  0  0  0  0  0  0  0  0  0
   19.0477   -9.2230    0.0000 C   0  0  0  0  0  0  0  0  0  0  0  0
   19.0514   -8.4058    0.0000 C   0  0  0  0  0  0  0  0  0  0  0  0
   18.3381   -9.6284    0.0000 O   0  0  0  0  0  0  0  0  0  0  0  0
   19.7609   -8.0004    0.0000 C   0  0  0  0  0  0  0  0  0  0  0  0
  4  1  1  0
  5  2  1  0
  4  6  1  0
  5  3  2  0
  4  7  1  0
  5  4  1  0
121 23  2  0
 89 66  1  0
 81 99  1  0
 92103  1  0
 16 29  1  0
109 43  1  0
 56 49  1  0
129 15  2  0
100108  1  0
 51 99  1  0
 79 35  1  0
 65 37  1  0
 15 31  1  0
 69 65  1  0
114 14  1  0
108131  2  0
112 57  1  0
 11114  1  0
 45 76  1  0
 57 34  1  0
 12 71  1  0
119 80  1  0
 43 89  1  0
 34 55  1  0
 93 56  2  0
 52 84  1  0
120 84  1  0
 71 97  1  0
 84125  2  0
 31 64  2  0
 35 81  2  0
 23 42  1  0
 53 20  1  0
117 52  1  0
 12 94  2  0
103 74  1  0
 96114  1  0
 64 82  1  0
 72 22  2  0
 88 50  1  0
 25119  1  0
 29 70  1  0
 52108  1  0
106 39  1  0
 69116  1  6
 47 41  1  0
103123  2  0
 76 62  1  0
 80107  1  0
 33 96  1  0
 50 32  1  0
 18126  1  0
 66104  2  0
 50 25  1  1
 21111  2  0
 40105  1  0
 61 16  1  0
 15 77  1  0
 20 82  1  0
 22 28  1  0
 26 21  1  0
 86110  2  0
 30  8  1  0
124106  1  0
 66 93  1  0
 97 10  2  0
113 85  1  0
 24 97  1  0
 60 44  1  0
 55 45  1  0
 48 69  1  0
 42 90  1  0
126 78  2  0
  9113  2  0
122 67  1  0
 46 47  2  0
 78 46  1  0
 59 87  1  0
 36 91  1  0
 48 12  1  0
 37 51  1  0
 32130  2  0
105 19  1  0
 42127  2  0
 49 26  2  0
106 92  2  0
 32 53  1  0
 65101  2  0
 98 30  2  0
 28 24  2  0
 63 27  2  0
 44 79  2  0
 13109  1  0
 41 18  2  0
 38 11  1  0
 86  8  1  0
 19 83  1  0
 73 13  1  0
117 17  2  0
 71126  1  0
 91124  1  0
116 36  1  0
122112  2  0
 74 61  1  0
 99 60  2  0
 62 40  1  0
128 86  1  0
 27 75  1  0
 70 73  1  0
 95121  1  0
 23 98  1  0
 79 54  1  0
115 33  1  0
102 68  2  0
 88117  1  0
 57 58  2  0
131 63  1  0
 83128  1  0
 26102  1  0
 10 72  1  0
 82118  2  0
118129  1  0
125  9  1  0
  8 95  2  0
 75100  2  0
 85120  2  0
111 93  1  0
102115  1  0
 90 38  1  0
 14 59  1  0
107122  1  0
 87132  1  0
132133  1  0
132134  2  0
133135  1  0
M  END

> <chembl_id>
CHEMBL2440916

> <chembl_pref_name>
None

$$$$

     RDKit          2D

 26 27  0  0  0  0  0  0  0  0999 V2000
   -3.7055  -20.5787    0.0000 C   0  0  0  0  0  0  0  0  0  0  0  0
   -3.7055  -21.4037    0.0000 C   0  0  0  0  0  0  0  0  0  0  0  0
   -2.9905  -20.1639    0.0000 C   0  0  0  0  0  0  0  0  0  0  0  0
   -4.4201  -20.1708    0.0000 C   0  0  0  0  0  0  0  0  0  0  0  0
   -5.1318  -20.5833    0.0000 P   0  0  0  0  0  0  0  0  0  0  0  0
   -5.8464  -20.1754    0.0000 O   0  0  0  0  0  0  0  0  0  0  0  0
   -5.1292  -21.4082    0.0000 O   0  0  0  0  0  0  0  0  0  0  0  0
   -5.8477  -20.9935    0.0000 O   0  0  0  0  0  0  0  0  0  0  0  0
   -4.0109  -19.4529    0.0000 F   0  0  0  0  0  0  0  0  0  0  0  0
   -4.8358  -19.4529    0.0000 F   0  0  0  0  0  0  0  0  0  0  0  0
   -2.9885  -21.8184    0.0000 C   0  0  0  0  0  0  0  0  0  0  0  0
   -2.2800  -20.5787    0.0000 C   0  0  0  0  0  0  0  0  0  0  0  0
   -2.2751  -21.3997    0.0000 C   0  0  0  0  0  0  0  0  0  0  0  0
   -1.5598  -21.8109    0.0000 C   0  0  0  0  0  0  0  0  0  0  0  0
   -1.5557  -22.6359    0.0000 O   0  0  0  0  0  0  0  0  0  0  0  0
   -0.8487  -21.3926    0.0000 N   0  0  0  0  0  0  0  0  0  0  0  0
   -0.1339  -21.8042    0.0000 C   0  0  0  0  0  0  0  0  0  0  0  0
   -0.1362  -22.6261    0.0000 C   0  0  0  0  0  0  0  0  0  0  0  0
    0.5823  -23.0330    0.0000 C   0  0  0  0  0  0  0  0  0  0  0  0
    1.2945  -22.6198    0.0000 C   0  0  0  0  0  0  0  0  0  0  0  0
    1.2880  -21.7904    0.0000 C   0  0  0  0  0  0  0  0  0  0  0  0
    0.5735  -21.3875    0.0000 C   0  0  0  0  0  0  0  0  0  0  0  0
    2.0101  -23.0304    0.0000 C   0  0  0  0  0  0  0  0  0  0  0  0
    2.0149  -23.8553    0.0000 F   0  0  0  0  0  0  0  0  0  0  0  0
    2.7208  -22.6114    0.0000 F   0  0  0  0  0  0  0  0  0  0  0  0
    2.7210  -23.4364    0.0000 F   0  0  0  0  0  0  0  0  0  0  0  0
  1  3  2  0
  5  6  1  0
 13 14  1  0
  2 11  2  0
 14 15  2  0
  5  7  2  0
 14 16  1  0
 12  3  1  0
 16 17  1  0
  5  8  1  0
 17 18  2  0
  1  2  1  0
 18 19  1  0
  4  9  1  0
 19 20  2  0
  1  4  1  0
 20 21  1  0
  4 10  1  0
 21 22  2  0
 22 17  1  0
 13 11  1  0
 20 23  1  0
 23 24  1  0
 12 13  2  0
 23 25  1  0
  4  5  1  0
 23 26  1  0
M  END

> <chembl_id>
CHEMBL1080494

> <chembl_pref_name>
None

$$$$

     RDKit          2D

130133  0  0  0  0  0  0  0  0999 V2000
  -11.8236   -4.1880    0.0000 C   0  0  0  0  0  0  0  0  0  0  0  0
  -11.1060   -5.4214    0.0000 O   0  0  0  0  0  0  0  0  0  0  0  0
  -11.8227   -3.3659    0.0000 C   0  0  0  0  0  0  0  0  0  0  0  0
  -11.1051   -4.5966    0.0000 C   0  0  0  0  0  0  0  0  0  0  0  0
   -9.6737   -4.5928    0.0000 C   0  0  0  0  0  0  0  0  0  0  0  0
   -8.9505   -3.3495    0.0000 O   0  0  0  0  0  0  0  0  0  0  0  0
   -8.9514   -4.1773    0.0000 C   0  0  0  0  0  0  0  0  0  0  0  0
   -9.6746   -5.4149    0.0000 C   0  0  0  0  0  0  0  0  0  0  0  0
   -8.9469   -5.8302    0.0000 S   0  0  0  0  0  0  0  0  0  0  0  0
   -7.5256   -4.1764    0.0000 C   0  0  0  0  0  0  0  0  0  0  0  0
   -6.8170   -5.4023    0.0000 O   0  0  0  0  0  0  0  0  0  0  0  0
   -6.8244   -4.5845    0.0000 C   0  0  0  0  0  0  0  0  0  0  0  0
   -7.5331   -3.3468    0.0000 C   0  0  0  0  0  0  0  0  0  0  0  0
   -5.3898   -4.5905    0.0000 C   0  0  0  0  0  0  0  0  0  0  0  0
   -4.6673   -3.3426    0.0000 O   0  0  0  0  0  0  0  0  0  0  0  0
   -4.6706   -4.1768    0.0000 C   0  0  0  0  0  0  0  0  0  0  0  0
   -5.3890   -5.4080    0.0000 C   0  0  0  0  0  0  0  0  0  0  0  0
   -4.6688   -5.8243    0.0000 C   0  0  0  0  0  0  0  0  0  0  0  0
   -4.6679   -6.6417    0.0000 O   0  0  0  0  0  0  0  0  0  0  0  0
   -1.8098   -0.8626    0.0000 C   0  0  0  0  0  0  0  0  0  0  0  0
   -1.0999   -0.4531    0.0000 N   0  0  0  0  0  0  0  0  0  0  0  0
   -3.2334   -4.1832    0.0000 C   0  0  0  0  0  0  0  0  0  0  0  0
   -2.5258   -5.4043    0.0000 O   0  0  0  0  0  0  0  0  0  0  0  0
   -2.5267   -4.5911    0.0000 C   0  0  0  0  0  0  0  0  0  0  0  0
   -3.2342   -3.3489    0.0000 C   0  0  0  0  0  0  0  0  0  0  0  0
   -2.5284   -2.9394    0.0000 C   0  0  0  0  0  0  0  0  0  0  0  0
   -2.5293   -2.1093    0.0000 C   0  0  0  0  0  0  0  0  0  0  0  0
   -1.1019   -4.5886    0.0000 C   0  0  0  0  0  0  0  0  0  0  0  0
   -0.3835   -3.3364    0.0000 O   0  0  0  0  0  0  0  0  0  0  0  0
   -0.3826   -4.1707    0.0000 C   0  0  0  0  0  0  0  0  0  0  0  0
   -1.1010   -5.4019    0.0000 C   0  0  0  0  0  0  0  0  0  0  0  0
   -0.3738   -6.6356    0.0000 C   0  0  0  0  0  0  0  0  0  0  0  0
   -0.3808   -5.8183    0.0000 C   0  0  0  0  0  0  0  0  0  0  0  0
    0.3353   -5.3960    0.0000 C   0  0  0  0  0  0  0  0  0  0  0  0
    1.0523   -5.7998    0.0000 C   0  0  0  0  0  0  0  0  0  0  0  0
    1.0564   -6.6257    0.0000 C   0  0  0  0  0  0  0  0  0  0  0  0
    0.3474   -7.0436    0.0000 C   0  0  0  0  0  0  0  0  0  0  0  0
    2.4651   -0.8515    0.0000 C   0  0  0  0  0  0  0  0  0  0  0  0
    3.1708   -0.4421    0.0000 N   0  0  0  0  0  0  0  0  0  0  0  0
    0.3241   -4.5787    0.0000 N   0  0  0  0  0  0  0  0  0  0  0  0
    1.0434   -4.1607    0.0000 C   0  0  0  0  0  0  0  0  0  0  0  0
    1.7509   -5.3860    0.0000 O   0  0  0  0  0  0  0  0  0  0  0  0
    1.7542   -4.5687    0.0000 C   0  0  0  0  0  0  0  0  0  0  0  0
    1.0425   -3.3265    0.0000 C   0  0  0  0  0  0  0  0  0  0  0  0
    1.7525   -2.9212    0.0000 C   0  0  0  0  0  0  0  0  0  0  0  0
    1.7516   -2.0868    0.0000 C   0  0  0  0  0  0  0  0  0  0  0  0
    3.1652   -4.5720    0.0000 C   0  0  0  0  0  0  0  0  0  0  0  0
    3.8769   -3.3345    0.0000 O   0  0  0  0  0  0  0  0  0  0  0  0
    3.8778   -4.1604    0.0000 C   0  0  0  0  0  0  0  0  0  0  0  0
    3.1661   -5.3978    0.0000 C   0  0  0  0  0  0  0  0  0  0  0  0
    3.8796   -5.8080    0.0000 C   0  0  0  0  0  0  0  0  0  0  0  0
    3.8805   -6.6338    0.0000 O   0  0  0  0  0  0  0  0  0  0  0  0
    5.3179   -4.1708    0.0000 C   0  0  0  0  0  0  0  0  0  0  0  0
    6.7440   -4.1692    0.0000 O   0  0  0  0  0  0  0  0  0  0  0  0
    6.0313   -4.5808    0.0000 C   0  0  0  0  0  0  0  0  0  0  0  0
    5.3170   -3.3449    0.0000 C   0  0  0  0  0  0  0  0  0  0  0  0
    6.0296   -2.9332    0.0000 S   0  0  0  0  0  0  0  0  0  0  0  0
    6.0322   -5.4067    0.0000 N   0  0  0  0  0  0  0  0  0  0  0  0
    6.7820   -5.7439    0.0000 C   0  0  0  0  0  0  0  0  0  0  0  0
    7.5026   -4.5116    0.0000 O   0  0  0  0  0  0  0  0  0  0  0  0
    7.5017   -5.3375    0.0000 C   0  0  0  0  0  0  0  0  0  0  0  0
    6.6968   -6.5644    0.0000 C   0  0  0  0  0  0  0  0  0  0  0  0
    5.4766   -6.0216    0.0000 C   0  0  0  0  0  0  0  0  0  0  0  0
    5.8900   -6.7359    0.0000 C   0  0  0  0  0  0  0  0  0  0  0  0
    8.9398   -5.3504    0.0000 C   0  0  0  0  0  0  0  0  0  0  0  0
    9.6493   -6.5915    0.0000 O   0  0  0  0  0  0  0  0  0  0  0  0
    9.6503   -5.7656    0.0000 C   0  0  0  0  0  0  0  0  0  0  0  0
    8.9449   -4.5246    0.0000 C   0  0  0  0  0  0  0  0  0  0  0  0
    9.6562   -4.1181    0.0000 C   0  0  0  0  0  0  0  0  0  0  0  0
    9.6613   -3.2922    0.0000 C   0  0  0  0  0  0  0  0  0  0  0  0
   10.3709   -4.5333    0.0000 C   0  0  0  0  0  0  0  0  0  0  0  0
   11.0659   -5.7641    0.0000 C   0  0  0  0  0  0  0  0  0  0  0  0
   11.7865   -4.5317    0.0000 O   0  0  0  0  0  0  0  0  0  0  0  0
   11.7814   -5.3576    0.0000 C   0  0  0  0  0  0  0  0  0  0  0  0
   11.0608   -6.5899    0.0000 C   0  0  0  0  0  0  0  0  0  0  0  0
   12.4422   -6.5209    0.0000 C   0  0  0  0  0  0  0  0  0  0  0  0
   11.7761   -7.0048    0.0000 C   0  0  0  0  0  0  0  0  0  0  0  0
   12.0318   -7.7880    0.0000 C   0  0  0  0  0  0  0  0  0  0  0  0
   12.8568   -7.7896    0.0000 C   0  0  0  0  0  0  0  0  0  0  0  0
   13.2644   -8.5024    0.0000 C   0  0  0  0  0  0  0  0  0  0  0  0
   12.8560   -9.2159    0.0000 C   0  0  0  0  0  0  0  0  0  0  0  0
   12.0310   -9.2143    0.0000 C   0  0  0  0  0  0  0  0  0  0  0  0
   11.6193   -8.5023    0.0000 C   0  0  0  0  0  0  0  0  0  0  0  0
   16.8047   -6.6131    0.0000 C   0  0  0  0  0  0  0  0  0  0  0  0
   18.2307   -6.6131    0.0000 O   0  0  0  0  0  0  0  0  0  0  0  0
   17.5178   -7.0282    0.0000 C   0  0  0  0  0  0  0  0  0  0  0  0
   16.0876   -7.0282    0.0000 C   0  0  0  0  0  0  0  0  0  0  0  0
   15.3745   -6.6131    0.0000 C   0  0  0  0  0  0  0  0  0  0  0  0
   18.2200   -8.2689    0.0000 C   0  0  0  0  0  0  0  0  0  0  0  0
   17.5071   -9.5056    0.0000 O   0  0  0  0  0  0  0  0  0  0  0  0
   18.2200   -9.0906    0.0000 C   0  0  0  0  0  0  0  0  0  0  0  0
   18.9331   -7.8539    0.0000 C   0  0  0  0  0  0  0  0  0  0  0  0
   19.6502   -8.2689    0.0000 S   0  0  0  0  0  0  0  0  0  0  0  0
   18.9356  -10.3298    0.0000 C   0  0  0  0  0  0  0  0  0  0  0  0
   19.6528  -11.5665    0.0000 O   0  0  0  0  0  0  0  0  0  0  0  0
   19.6528  -10.7448    0.0000 C   0  0  0  0  0  0  0  0  0  0  0  0
   13.2134   -5.3654    0.0000 C   0  0  0  0  0  0  0  0  0  0  0  0
   13.9230   -6.6024    0.0000 O   0  0  0  0  0  0  0  0  0  0  0  0
   13.9280   -5.7806    0.0000 C   0  0  0  0  0  0  0  0  0  0  0  0
   13.2185   -4.5395    0.0000 C   0  0  0  0  0  0  0  0  0  0  0  0
   15.3560   -5.7897    0.0000 C   0  0  0  0  0  0  0  0  0  0  0  0
   16.0715   -4.5574    0.0000 O   0  0  0  0  0  0  0  0  0  0  0  0
   16.0715   -5.3791    0.0000 C   0  0  0  0  0  0  0  0  0  0  0  0
   16.2552   -6.1616    0.0000 H   0  0  0  0  0  0  0  0  0  0  0  0
  -12.5389   -4.6076    0.0000 N   0  0  0  0  0  0  0  0  0  0  0  0
  -10.3883   -4.1877    0.0000 N   0  0  0  0  0  0  0  0  0  0  0  0
   -8.2388   -4.5934    0.0000 N   0  0  0  0  0  0  0  0  0  0  0  0
   -6.8252   -2.9445    0.0000 O   0  0  0  0  0  0  0  0  0  0  0  0
   -6.1066   -4.1737    0.0000 N   0  0  0  0  0  0  0  0  0  0  0  0
   -3.9483   -5.4080    0.0000 O   0  0  0  0  0  0  0  0  0  0  0  0
   -1.8203   -1.6875    0.0000 N   0  0  0  0  0  0  0  0  0  0  0  0
   -2.5431   -0.4413    0.0000 N   0  0  0  0  0  0  0  0  0  0  0  0
   -3.9538   -4.5853    0.0000 N   0  0  0  0  0  0  0  0  0  0  0  0
   -1.8150   -4.1738    0.0000 N   0  0  0  0  0  0  0  0  0  0  0  0
    2.4673   -1.6765    0.0000 N   0  0  0  0  0  0  0  0  0  0  0  0
    1.7419   -0.4366    0.0000 N   0  0  0  0  0  0  0  0  0  0  0  0
    2.4607   -4.1427    0.0000 N   0  0  0  0  0  0  0  0  0  0  0  0
    4.5900   -5.3818    0.0000 N   0  0  0  0  0  0  0  0  0  0  0  0
    4.5949   -4.5682    0.0000 N   0  0  0  0  0  0  0  0  0  0  0  0
    8.2172   -5.7484    0.0000 N   0  0  0  0  0  0  0  0  0  0  0  0
   10.3576   -5.3410    0.0000 N   0  0  0  0  0  0  0  0  0  0  0  0
   13.1105   -7.0046    0.0000 N   0  0  0  0  0  0  0  0  0  0  0  0
   16.7879   -5.7883    0.0000 N   0  0  0  0  0  0  0  0  0  0  0  0
   16.0737   -7.8396    0.0000 O   0  0  0  0  0  0  0  0  0  0  0  0
   17.5075   -7.8531    0.0000 N   0  0  0  0  0  0  0  0  0  0  0  0
   18.9335   -9.5048    0.0000 N   0  0  0  0  0  0  0  0  0  0  0  0
   20.3561  -10.3304    0.0000 N   0  0  0  0  0  0  0  0  0  0  0  0
   12.4952   -5.7713    0.0000 N   0  0  0  0  0  0  0  0  0  0  0  0
   13.9312   -4.1306    0.0000 O   0  0  0  0  0  0  0  0  0  0  0  0
   14.6446   -5.3719    0.0000 N   0  0  0  0  0  0  0  0  0  0  0  0
  8  9  1  0
 10 12  1  0
 12 11  2  0
 10 13  1  1
 14 16  1  0
 16 15  2  0
 14 17  1  6
 17 18  1  0
 18 19  2  0
 20 21  2  0
 22 24  1  0
 24 23  2  0
 22 25  1  1
 25 26  1  0
 26 27  1  0
 28 30  1  0
 30 29  2  0
 28 31  1  6
 31 33  1  0
 32 33  2  0
 33 34  1  0
 34 35  2  0
 35 36  1  0
 36 37  2  0
 37 32  1  0
 38 39  2  0
 40 41  1  0
 41 43  1  0
 43 42  2  0
 41 44  1  1
 44 45  1  0
 45 46  1  0
 47 49  1  0
 49 48  2  0
 47 50  1  6
 50 51  1  0
 51 52  2  0
 53 55  1  0
 55 54  2  0
 53 56  1  1
 56 57  1  0
 58 59  1  0
 59 61  1  6
 61 60  2  0
 59 62  1  0
 63 64  1  0
 64 62  1  0
 63 58  1  0
 65 67  1  0
 67 66  2  0
 65 68  1  1
 68 69  1  0
 69 70  1  0
 69 71  1  0
 72 74  1  0
 74 73  2  0
 72 75  1  6
 75 77  1  0
 76 77  2  0
 77 78  1  0
 78 79  2  0
 79 80  1  0
 80 81  2  0
 81 82  1  0
 82 83  2  0
 83 78  1  0
 84 86  1  0
 86 85  2  0
 84 87  1  0
 87 88  1  0
 89 91  1  0
 91 90  2  0
 89 92  1  1
 92 93  1  0
 94 96  1  0
 96 95  2  0
 97 99  1  0
 99 98  2  0
 97100  1  1
101103  1  0
103102  2  0
 84104  1  1
 30 40  1  0
 55 58  1  0
  1  4  1  0
  4  2  2  0
  1  3  1  1
  5  7  1  0
  7  6  2  0
  5  8  1  6
117 47  1  0
 43117  1  0
107 10  1  0
  7107  1  0
 51118  1  0
111 20  1  0
 27111  1  0
119 53  1  0
 49119  1  0
120 65  1  0
 61120  1  0
 20112  1  0
121 72  1  0
 67121  1  0
 13108  1  0
122 76  1  0
 79122  1  0
113 22  1  0
 16113  1  0
123 84  1  0
103123  1  0
  4106  1  0
106  5  1  0
 87124  1  6
114 28  1  0
 24114  1  0
125 89  1  0
 86125  1  0
109 14  1  0
 12109  1  0
126 94  1  0
 91126  1  0
115 38  1  0
 46115  1  0
 96127  1  0
105  1  1  0
128 97  1  0
128 74  1  0
 38116  1  0
100129  1  0
 18110  1  0
130101  1  0
130 99  1  0
M  END

> <chembl_id>
CHEMBL1240697

> <chembl_pref_name>
None

$$$$

     RDKit          2D

 28 27  0  0  0  0  0  0  0  0999 V2000
   12.8943   -0.8828    0.0000 Cl  0  0  0  0  0  0  0  0  0  0  0  0
    2.5889    0.0182    0.0000 C   0  0  0  0  0  0  0  0  0  0  0  0
    1.7138    1.2033    0.0000 N   0  0  0  0  0  0  0  0  0  0  0  0
    0.2917    0.7475    0.0000 C   0  0  0  0  0  0  0  0  0  0  0  0
    0.2917   -0.7475    0.0000 C   0  0  0  0  0  0  0  0  0  0  0  0
    1.7138   -1.2033    0.0000 N   0  0  0  0  0  0  0  0  0  0  0  0
   -1.0028    1.5132    0.0000 C   0  0  0  0  0  0  0  0  0  0  0  0
   -2.3155    0.7475    0.0000 C   0  0  0  0  0  0  0  0  0  0  0  0
   -2.3155   -0.7475    0.0000 C   0  0  0  0  0  0  0  0  0  0  0  0
   -1.0028   -1.5132    0.0000 C   0  0  0  0  0  0  0  0  0  0  0  0
    4.0872    0.0382    0.0000 C   0  0  0  0  0  0  0  0  0  0  0  0
    4.8208    1.3475    0.0000 N   0  0  0  0  0  0  0  0  0  0  0  0
    6.2995    1.5073    0.0000 C   0  0  0  0  0  0  0  0  0  0  0  0
    6.5896    2.9790    0.0000 C   0  0  0  0  0  0  0  0  0  0  0  0
    5.2796    3.7097    0.0000 C   0  0  0  0  0  0  0  0  0  0  0  0
    4.1799    2.6896    0.0000 C   0  0  0  0  0  0  0  0  0  0  0  0
    2.1855   -2.6254    0.0000 C   0  0  0  0  0  0  0  0  0  0  0  0
    3.6552   -2.9294    0.0000 C   0  0  0  0  0  0  0  0  0  0  0  0
    4.1295   -4.3524    0.0000 C   0  0  0  0  0  0  0  0  0  0  0  0
    5.5991   -4.6533    0.0000 C   0  0  0  0  0  0  0  0  0  0  0  0
    6.5944   -3.5310    0.0000 C   0  0  0  0  0  0  0  0  0  0  0  0
    6.1201   -2.1080    0.0000 C   0  0  0  0  0  0  0  0  0  0  0  0
    4.6506   -1.8071    0.0000 C   0  0  0  0  0  0  0  0  0  0  0  0
    4.2712   -0.6687    0.0000 Cl  0  0  0  0  0  0  0  0  0  0  0  0
    3.3333   -5.2502    0.0000 Cl  0  0  0  0  0  0  0  0  0  0  0  0
   10.5676   -0.4078    0.0000 Cl  0  0  0  0  0  0  0  0  0  0  0  0
   17.8943   -0.8828    0.0000 Cl  0  0  0  0  0  0  0  0  0  0  0  0
   15.3943   -0.8828    0.0000 Cl  0  0  0  0  0  0  0  0  0  0  0  0
  2  3  2  0
  3  4  1  0
  4  5  1  0
  5  6  1  0
  2  6  1  0
  7  8  1  0
  8  9  2  0
  9 10  1  0
  5 10  2  0
  4  7  2  0
 12 13  1  0
 13 14  1  0
 14 15  1  0
 15 16  1  0
 12 16  1  0
 11 12  1  0
  2 11  1  0
 17 18  1  0
 18 19  1  0
 19 20  2  0
 20 21  1  0
 21 22  2  0
 22 23  1  0
 18 23  2  0
 23 24  1  0
 19 25  1  0
  6 17  1  0
M  END

> <chembl_id>
CHEMBL3216832

> <chembl_pref_name>
None

$$$$

     RDKit          2D

 24 24  0  0  0  0  0  0  0  0999 V2000
    9.3000   -4.9207    0.0000 Cl  0  0  0  0  0  0  0  0  0  0  0  0
    8.0291   -3.8124    0.0000 C   0  0  0  0  0  0  0  0  0  0  0  0
    8.7436   -3.3999    0.0000 C   0  0  0  0  0  0  0  0  0  0  0  0
    9.4581   -3.8124    0.0000 N   0  0  0  0  0  0  0  0  0  0  0  0
    8.7436   -2.5749    0.0000 O   0  0  0  0  0  0  0  0  0  0  0  0
   10.1725   -3.3999    0.0000 C   0  0  0  0  0  0  0  0  0  0  0  0
    7.3147   -3.3999    0.0000 C   0  0  0  0  0  0  0  0  0  0  0  0
   10.8870   -3.8124    0.0000 C   0  0  0  0  0  0  0  0  0  0  0  0
   11.6014   -3.3999    0.0000 C   0  0  0  0  0  0  0  0  0  0  0  0
   12.3183   -3.8188    0.0000 C   0  0  0  0  0  0  0  0  0  0  0  0
   13.0327   -3.4057    0.0000 C   0  0  0  0  0  0  0  0  0  0  0  0
   13.7480   -3.8249    0.0000 C   0  0  0  0  0  0  0  0  0  0  0  0
   14.4602   -3.4152    0.0000 C   0  0  0  0  0  0  0  0  0  0  0  0
   14.4639   -2.5896    0.0000 C   0  0  0  0  0  0  0  0  0  0  0  0
   13.7491   -2.1754    0.0000 C   0  0  0  0  0  0  0  0  0  0  0  0
   13.0306   -2.5866    0.0000 C   0  0  0  0  0  0  0  0  0  0  0  0
    6.6002   -3.8123    0.0000 C   0  0  0  0  0  0  0  0  0  0  0  0
    5.8857   -3.3998    0.0000 N   0  0  0  0  0  0  0  0  0  0  0  0
    5.8904   -2.5782    0.0000 C   0  0  0  0  0  0  0  0  0  0  0  0
    5.1800   -2.1658    0.0000 C   0  0  0  0  0  0  0  0  0  0  0  0
    4.4631   -2.5747    0.0000 C   0  0  0  0  0  0  0  0  0  0  0  0
    4.4611   -3.4007    0.0000 C   0  0  0  0  0  0  0  0  0  0  0  0
    5.1760   -3.8177    0.0000 C   0  0  0  0  0  0  0  0  0  0  0  0
   15.1796   -2.1792    0.0000 Cl  0  0  0  0  0  0  0  0  0  0  0  0
 11 10  1  0
 11 12  1  0
 11 16  2  0
 12 13  2  0
 13 14  1  0
 14 15  2  0
 15 16  1  0
  7 17  1  0
 17 18  1  0
 18 19  1  0
  2  3  1  0
  3  4  1  0
  3  5  2  0
  4  6  1  0
  2  7  1  0
 18 23  1  0
 19 20  1  0
 20 21  1  0
 21 22  1  0
 22 23  1  0
  6  8  1  0
 14 24  1  0
  8  9  1  0
  9 10  1  0
M  END

> <chembl_id>
CHEMBL2441947

> <chembl_pref_name>
None

$$$$

     RDKit          2D

 18 18  0  0  0  0  0  0  0  0999 V2000
    6.1542   -3.7917    0.0000 N   0  0  0  0  0  0  0  0  0  0  0  0
    1.8667   -5.4625    0.0000 C   0  0  0  0  0  0  0  0  0  0  0  0
    2.5875   -5.0500    0.0000 C   0  0  0  0  0  0  0  0  0  0  0  0
    1.1542   -5.0500    0.0000 C   0  0  0  0  0  0  0  0  0  0  0  0
    2.5875   -4.2167    0.0000 C   0  0  0  0  0  0  0  0  0  0  0  0
    1.1542   -4.2250    0.0000 C   0  0  0  0  0  0  0  0  0  0  0  0
    5.4417   -4.2042    0.0000 C   0  0  0  0  0  0  0  0  0  0  0  0
    3.3000   -3.8042    0.0000 O   0  0  0  0  0  0  0  0  0  0  0  0
    4.7292   -3.8000    0.0000 C   0  0  0  0  0  0  0  0  0  0  0  0
    1.8667   -6.2875    0.0000 O   0  0  0  0  0  0  0  0  0  0  0  0
    4.0167   -4.2125    0.0000 C   0  0  0  0  0  0  0  0  0  0  0  0
    1.8667   -3.8042    0.0000 C   0  0  0  0  0  0  0  0  0  0  0  0
    0.4417   -5.4542    0.0000 O   0  0  0  0  0  0  0  0  0  0  0  0
    6.8667   -3.3750    0.0000 C   0  0  0  0  0  0  0  0  0  0  0  0
    5.4417   -3.3792    0.0000 O   0  0  0  0  0  0  0  0  0  0  0  0
    7.5875   -3.7792    0.0000 C   0  0  0  0  0  0  0  0  0  0  0  0
    6.8625   -2.5500    0.0000 C   0  0  0  0  0  0  0  0  0  0  0  0
    4.0125   -3.3875    0.0000 H   0  0  0  0  0  0  0  0  0  0  0  0
  2  3  2  0
  3  5  1  0
  4  6  2  0
  5  8  1  0
  6 12  1  0
  7  1  1  0
  8 11  1  0
  9  7  1  0
 10  2  1  0
 11  9  1  0
 12  5  2  0
 13  4  1  0
 14  1  1  0
  9 15  1  1
 16 14  1  0
 17 14  1  0
  9 18  1  6
  4  2  1  0
M  END

> <chembl_id>
CHEMBL1160694

> <chembl_pref_name>
None

$$$$

     RDKit          2D

 59 62  0  0  0  0  0  0  0  0999 V2000
   11.9818    0.8673    0.0000 O   0  0  0  0  0  0  0  0  0  0  0  0
    6.1511   -0.4614    0.0000 O   0  0  0  0  0  0  0  0  0  0  0  0
    6.9601    0.3185    0.0000 O   0  0  0  0  0  0  0  0  0  0  0  0
   12.3323    0.1269    0.0000 O   0  0  0  0  0  0  0  0  0  0  0  0
   10.8636    3.3624    0.0000 O   0  0  0  0  0  0  0  0  0  0  0  0
    3.9955   -0.8049    0.0000 O   0  0  0  0  0  0  0  0  0  0  0  0
    5.3387   -0.3174    0.0000 O   0  0  0  0  0  0  0  0  0  0  0  0
   11.1278    2.2368    0.0000 N   0  0  0  0  0  0  0  0  0  0  0  0
   11.8496    0.0234    0.0000 N   0  0  0  0  0  0  0  0  0  0  0  0
   12.8107    2.6063    0.0000 N   0  0  0  0  0  0  0  0  0  0  0  0
   13.8325    1.7474    0.0000 N   0  0  0  0  0  0  0  0  0  0  0  0
    7.6058   -2.1228    0.0000 N   0  0  0  0  0  0  0  0  0  0  0  0
    8.5669   -1.1964    0.0000 N   0  0  0  0  0  0  0  0  0  0  0  0
    5.9016   -1.8684    0.0000 N   0  0  0  0  0  0  0  0  0  0  0  0
    8.3754    0.5160    0.0000 N   0  0  0  0  0  0  0  0  0  0  0  0
   13.7577    0.0259    0.0000 N   0  0  0  0  0  0  0  0  0  0  0  0
    8.7978    2.6575    0.0000 N   0  0  0  0  0  0  0  0  0  0  0  0
   14.3246   -2.0819    0.0000 N   0  0  0  0  0  0  0  0  0  0  0  0
   10.5275   -0.1612    0.0000 C   0  0  0  0  0  0  0  0  0  0  0  0
   10.6715    0.6512    0.0000 C   0  0  0  0  0  0  0  0  0  0  0  0
   12.5010    1.8417    0.0000 C   0  0  0  0  0  0  0  0  0  0  0  0
   13.1325    1.3108    0.0000 C   0  0  0  0  0  0  0  0  0  0  0  0
   11.2556   -0.5491    0.0000 C   0  0  0  0  0  0  0  0  0  0  0  0
    7.2449   -1.3809    0.0000 C   0  0  0  0  0  0  0  0  0  0  0  0
    7.8388   -0.8084    0.0000 C   0  0  0  0  0  0  0  0  0  0  0  0
   10.3271    2.0380    0.0000 C   0  0  0  0  0  0  0  0  0  0  0  0
   11.7003    1.6429    0.0000 C   0  0  0  0  0  0  0  0  0  0  0  0
   10.0990    1.2452    0.0000 C   0  0  0  0  0  0  0  0  0  0  0  0
   11.4886    0.7652    0.0000 C   0  0  0  0  0  0  0  0  0  0  0  0
    6.4325   -1.2369    0.0000 C   0  0  0  0  0  0  0  0  0  0  0  0
    7.7248    0.0087    0.0000 C   0  0  0  0  0  0  0  0  0  0  0  0
   13.0742    0.4879    0.0000 C   0  0  0  0  0  0  0  0  0  0  0  0
   10.2130    2.8551    0.0000 C   0  0  0  0  0  0  0  0  0  0  0  0
    9.8275   -0.5977    0.0000 C   0  0  0  0  0  0  0  0  0  0  0  0
   11.2836   -1.3737    0.0000 C   0  0  0  0  0  0  0  0  0  0  0  0
   13.6337    2.5480    0.0000 C   0  0  0  0  0  0  0  0  0  0  0  0
    8.4229   -2.0087    0.0000 C   0  0  0  0  0  0  0  0  0  0  0  0
    9.8555   -1.4222    0.0000 C   0  0  0  0  0  0  0  0  0  0  0  0
    5.0893   -1.7244    0.0000 C   0  0  0  0  0  0  0  0  0  0  0  0
   10.5836   -1.8102    0.0000 C   0  0  0  0  0  0  0  0  0  0  0  0
    8.2613    1.3331    0.0000 C   0  0  0  0  0  0  0  0  0  0  0  0
    9.4484    3.1648    0.0000 C   0  0  0  0  0  0  0  0  0  0  0  0
    8.9119    1.8404    0.0000 C   0  0  0  0  0  0  0  0  0  0  0  0
    4.8079   -0.9489    0.0000 C   0  0  0  0  0  0  0  0  0  0  0  0
   13.6994   -0.7970    0.0000 C   0  0  0  0  0  0  0  0  0  0  0  0
    4.5584   -2.3559    0.0000 C   0  0  0  0  0  0  0  0  0  0  0  0
    7.4966    1.6429    0.0000 C   0  0  0  0  0  0  0  0  0  0  0  0
    3.7461   -2.2119    0.0000 C   0  0  0  0  0  0  0  0  0  0  0  0
    6.8461    1.1355    0.0000 C   0  0  0  0  0  0  0  0  0  0  0  0
   14.3829   -1.2590    0.0000 C   0  0  0  0  0  0  0  0  0  0  0  0
    3.2152   -2.8434    0.0000 C   0  0  0  0  0  0  0  0  0  0  0  0
    3.4646   -1.4364    0.0000 C   0  0  0  0  0  0  0  0  0  0  0  0
   12.9576   -1.1580    0.0000 C   0  0  0  0  0  0  0  0  0  0  0  0
    2.4029   -2.6994    0.0000 C   0  0  0  0  0  0  0  0  0  0  0  0
    2.6523   -1.2924    0.0000 C   0  0  0  0  0  0  0  0  0  0  0  0
    2.1214   -1.9239    0.0000 C   0  0  0  0  0  0  0  0  0  0  0  0
    6.4581    0.4075    0.0000 C   0  0  0  0  0  0  0  0  0  0  0  0
    6.0814    1.4453    0.0000 C   0  0  0  0  0  0  0  0  0  0  0  0
    0.0000    0.0000    0.0000 Cl  0  0  0  0  0  0  0  0  0  0  0  0
  1 27  2  0
  2 30  2  0
  3 31  2  0
  4 32  2  0
  5 33  2  0
  6 44  2  0
  7 44  1  0
  8 26  1  0
  8 27  1  0
  9 23  1  0
  9 29  1  0
 10 21  1  0
 10 36  1  0
 11 22  1  0
 11 36  2  0
 12 24  1  0
 12 37  2  0
 13 25  1  0
 13 37  1  0
 14 30  1  0
 39 14  1  1
 15 31  1  0
 15 41  1  0
 16 32  1  0
 16 45  1  0
 17 42  1  0
 17 43  1  0
 18 50  1  0
 19 20  1  0
 19 23  1  0
 19 34  2  0
 20 28  1  0
 20 29  2  0
 21 22  2  0
 21 27  1  0
 22 32  1  0
 23 35  2  0
 24 25  2  0
 24 30  1  0
 25 31  1  0
 26 28  1  1
 26 33  1  0
 33 42  1  0
 34 38  1  0
 35 40  1  0
 38 40  2  0
 39 44  1  0
 39 46  1  0
 41 43  1  0
 41 47  1  1
 45 50  1  0
 45 53  1  6
 46 48  1  0
 47 49  1  0
 48 51  2  0
 48 52  1  0
 49 57  1  0
 49 58  1  0
 51 54  1  0
 52 55  2  0
 54 56  2  0
 55 56  1  0
M  END

> <chembl_id>
CHEMBL1704169

> <chembl_pref_name>
None

$$$$

     RDKit          2D

 40 43  0  0  0  0  0  0  0  0999 V2000
   19.7861   -6.3500    0.0000 C   0  0  0  0  0  0  0  0  0  0  0  0
   19.7849   -7.1773    0.0000 C   0  0  0  0  0  0  0  0  0  0  0  0
   20.4997   -7.5902    0.0000 C   0  0  0  0  0  0  0  0  0  0  0  0
   21.2162   -7.1769    0.0000 C   0  0  0  0  0  0  0  0  0  0  0  0
   21.2133   -6.3463    0.0000 C   0  0  0  0  0  0  0  0  0  0  0  0
   20.4979   -5.9372    0.0000 C   0  0  0  0  0  0  0  0  0  0  0  0
   20.4955   -5.1122    0.0000 C   0  0  0  0  0  0  0  0  0  0  0  0
   19.0715   -5.9376    0.0000 O   0  0  0  0  0  0  0  0  0  0  0  0
   18.3571   -6.3503    0.0000 C   0  0  0  0  0  0  0  0  0  0  0  0
   17.6426   -5.9380    0.0000 C   0  0  0  0  0  0  0  0  0  0  0  0
   16.9282   -6.3506    0.0000 O   0  0  0  0  0  0  0  0  0  0  0  0
   17.6424   -5.1130    0.0000 O   0  0  0  0  0  0  0  0  0  0  0  0
   21.9313   -7.5882    0.0000 O   0  0  0  0  0  0  0  0  0  0  0  0
   22.6451   -7.1746    0.0000 C   0  0  0  0  0  0  0  0  0  0  0  0
   23.3600   -7.5861    0.0000 C   0  0  0  0  0  0  0  0  0  0  0  0
   23.3830   -8.4087    0.0000 O   0  0  0  0  0  0  0  0  0  0  0  0
   24.1749   -8.6400    0.0000 C   0  0  0  0  0  0  0  0  0  0  0  0
   24.6396   -7.9583    0.0000 C   0  0  0  0  0  0  0  0  0  0  0  0
   24.1349   -7.3058    0.0000 N   0  0  0  0  0  0  0  0  0  0  0  0
   25.4643   -7.9336    0.0000 C   0  0  0  0  0  0  0  0  0  0  0  0
   25.8946   -8.6385    0.0000 C   0  0  0  0  0  0  0  0  0  0  0  0
   26.6719   -7.1830    0.0000 N   0  0  0  0  0  0  0  0  0  0  0  0
   25.8495   -7.2108    0.0000 C   0  0  0  0  0  0  0  0  0  0  0  0
   24.5907   -9.3515    0.0000 C   0  0  0  0  0  0  0  0  0  0  0  0
   24.1811  -10.0661    0.0000 C   0  0  0  0  0  0  0  0  0  0  0  0
   24.5963  -10.7771    0.0000 C   0  0  0  0  0  0  0  0  0  0  0  0
   25.4213  -10.7732    0.0000 C   0  0  0  0  0  0  0  0  0  0  0  0
   25.8293  -10.0523    0.0000 C   0  0  0  0  0  0  0  0  0  0  0  0
   25.4118   -9.3442    0.0000 C   0  0  0  0  0  0  0  0  0  0  0  0
   25.8385  -11.4849    0.0000 O   0  0  0  0  0  0  0  0  0  0  0  0
   25.4308  -12.2021    0.0000 C   0  0  0  0  0  0  0  0  0  0  0  0
   25.8480  -12.9138    0.0000 F   0  0  0  0  0  0  0  0  0  0  0  0
   24.6058  -12.2076    0.0000 F   0  0  0  0  0  0  0  0  0  0  0  0
   25.0125  -12.9125    0.0000 F   0  0  0  0  0  0  0  0  0  0  0  0
   27.1062   -7.8812    0.0000 C   0  0  0  0  0  0  0  0  0  0  0  0
   26.7209   -8.6131    0.0000 C   0  0  0  0  0  0  0  0  0  0  0  0
   27.9307   -7.8516    0.0000 O   0  0  0  0  0  0  0  0  0  0  0  0
   28.3686   -8.5507    0.0000 C   0  0  0  0  0  0  0  0  0  0  0  0
   29.1931   -8.5211    0.0000 C   0  0  0  0  0  0  0  0  0  0  0  0
   27.9821   -9.2796    0.0000 C   0  0  0  0  0  0  0  0  0  0  0  0
  4  5  1  0
 18 20  1  0
  9 10  1  0
 20 21  2  0
 21 36  1  0
  2  3  1  0
 35 22  1  0
 10 11  1  0
 22 23  2  0
 23 20  1  0
  5  6  2  0
 17 24  1  0
 10 12  2  0
 24 25  2  0
  6  1  1  0
 25 26  1  0
  4 13  1  0
 26 27  2  0
  1  2  2  0
 27 28  1  0
 13 14  1  0
 28 29  2  0
 29 24  1  0
  6  7  1  0
 27 30  1  0
 14 15  1  0
 30 31  1  0
 15 16  1  0
 31 32  1  0
  3  4  2  0
 31 33  1  0
  1  8  1  0
 31 34  1  0
  8  9  1  0
 35 36  2  0
 16 17  1  0
 35 37  1  0
 17 18  2  0
 37 38  1  0
 18 19  1  0
 38 39  1  0
 19 15  2  0
 38 40  1  0
M  END

> <chembl_id>
CHEMBL1080699

> <chembl_pref_name>
None

$$$$

     RDKit          2D

 29 29  0  0  0  0  0  0  0  0999 V2000
    5.0964   -7.5050    0.0000 Cl  0  0  0  0  0  0  0  0  0  0  0  0
   -1.2964    1.4973    0.0000 C   0  0  0  0  0  0  0  0  0  0  0  0
   -2.6111    0.7486    0.0000 N   0  0  0  0  0  0  0  0  0  0  0  0
   -2.6111   -0.7486    0.0000 C   0  0  0  0  0  0  0  0  0  0  0  0
   -1.2964   -1.4973    0.0000 C   0  0  0  0  0  0  0  0  0  0  0  0
    0.0000   -0.7486    0.0000 C   0  0  0  0  0  0  0  0  0  0  0  0
    1.2964   -1.4973    0.0000 C   0  0  0  0  0  0  0  0  0  0  0  0
    2.5929   -0.7486    0.0000 C   0  0  0  0  0  0  0  0  0  0  0  0
    2.5929    0.7486    0.0000 C   0  0  0  0  0  0  0  0  0  0  0  0
    1.2964    1.4973    0.0000 C   0  0  0  0  0  0  0  0  0  0  0  0
    0.0000    0.7486    0.0000 C   0  0  0  0  0  0  0  0  0  0  0  0
    1.2964   -2.9981    0.0000 S   0  0  0  0  0  0  0  0  0  0  0  0
    2.3358   -3.5978    0.0000 O   0  0  0  0  0  0  0  0  0  0  0  0
    1.2970   -4.1981    0.0000 O   0  0  0  0  0  0  0  0  0  0  0  0
   -0.0028   -3.7494    0.0000 N   0  0  0  0  0  0  0  0  0  0  0  0
   -0.0028   -5.2502    0.0000 C   0  0  0  0  0  0  0  0  0  0  0  0
   -1.3021   -6.0014    0.0000 C   0  0  0  0  0  0  0  0  0  0  0  0
   -1.3021   -7.5023    0.0000 N   0  0  0  0  0  0  0  0  0  0  0  0
   -2.6014   -8.2535    0.0000 C   0  0  0  0  0  0  0  0  0  0  0  0
   -2.6014   -9.7543    0.0000 C   0  0  0  0  0  0  0  0  0  0  0  0
   -3.9007  -10.5056    0.0000 C   0  0  0  0  0  0  0  0  0  0  0  0
   -3.9007  -12.0064    0.0000 C   0  0  0  0  0  0  0  0  0  0  0  0
   -5.1982  -12.7591    0.0000 C   0  0  0  0  0  0  0  0  0  0  0  0
   -5.1951  -14.2591    0.0000 C   0  0  0  0  0  0  0  0  0  0  0  0
   -3.8946  -15.0065    0.0000 C   0  0  0  0  0  0  0  0  0  0  0  0
   -2.5970  -14.2538    0.0000 C   0  0  0  0  0  0  0  0  0  0  0  0
   -2.6001  -12.7538    0.0000 C   0  0  0  0  0  0  0  0  0  0  0  0
   -3.8921  -16.2065    0.0000 Br  0  0  0  0  0  0  0  0  0  0  0  0
    7.5964   -7.5050    0.0000 Cl  0  0  0  0  0  0  0  0  0  0  0  0
  2  3  2  0
  3  4  1  0
  4  5  2  0
  5  6  1  0
  6  7  1  0
  7  8  2  0
  8  9  1  0
  9 10  2  0
 10 11  1  0
  2 11  1  0
  6 11  2  0
 12 13  2  0
 12 14  2  0
 12 15  1  0
  7 12  1  0
 16 17  1  0
 19 20  1  0
 20 21  2  0
 21 22  1  0
 22 23  1  0
 23 24  2  0
 24 25  1  0
 25 26  2  0
 26 27  1  0
 22 27  2  0
 25 28  1  0
 18 19  1  0
 17 18  1  0
 15 16  1  0
M  END

> <chembl_id>
CHEMBL1315166

> <chembl_pref_name>
None

$$$$

     RDKit          2D

 23 25  0  0  0  0  0  0  0  0999 V2000
   -0.2338    0.9521    0.0000 S   0  0  0  0  0  0  0  0  0  0  0  0
   -1.3576   -1.8901    0.0000 O   0  0  0  0  0  0  0  0  0  0  0  0
   -2.9985   -1.7177    0.0000 O   0  0  0  0  0  0  0  0  0  0  0  0
   -2.0753    3.0466    0.0000 O   0  0  0  0  0  0  0  0  0  0  0  0
   -0.6463    5.5216    0.0000 O   0  0  0  0  0  0  0  0  0  0  0  0
   -1.3138    1.7367    0.0000 N   0  0  0  0  0  0  0  0  0  0  0  0
   -1.0588    0.9521    0.0000 C   0  0  0  0  0  0  0  0  0  0  0  0
   -0.6463    2.2216    0.0000 C   0  0  0  0  0  0  0  0  0  0  0  0
   -1.5438    0.2847    0.0000 C   0  0  0  0  0  0  0  0  0  0  0  0
   -0.6463    3.0466    0.0000 C   0  0  0  0  0  0  0  0  0  0  0  0
    0.0211    1.7367    0.0000 C   0  0  0  0  0  0  0  0  0  0  0  0
   -1.3608    3.4591    0.0000 C   0  0  0  0  0  0  0  0  0  0  0  0
   -1.6931   -1.1365    0.0000 C   0  0  0  0  0  0  0  0  0  0  0  0
   -1.2082   -0.4690    0.0000 C   0  0  0  0  0  0  0  0  0  0  0  0
   -2.5136   -1.0502    0.0000 C   0  0  0  0  0  0  0  0  0  0  0  0
   -2.3642    0.3709    0.0000 C   0  0  0  0  0  0  0  0  0  0  0  0
    0.0681    3.4591    0.0000 C   0  0  0  0  0  0  0  0  0  0  0  0
   -2.8492   -0.2965    0.0000 C   0  0  0  0  0  0  0  0  0  0  0  0
   -1.3608    4.2841    0.0000 C   0  0  0  0  0  0  0  0  0  0  0  0
   -0.6463    4.6966    0.0000 C   0  0  0  0  0  0  0  0  0  0  0  0
    0.0681    4.2841    0.0000 C   0  0  0  0  0  0  0  0  0  0  0  0
   -1.8425   -2.5576    0.0000 C   0  0  0  0  0  0  0  0  0  0  0  0
   -2.6630   -2.4713    0.0000 C   0  0  0  0  0  0  0  0  0  0  0  0
  1  7  1  0
  1 11  1  0
  2 13  1  0
  2 22  1  0
  3 15  1  0
  3 23  1  0
  4 12  1  0
  5 20  1  0
  6  7  2  0
  6  8  1  0
  7  9  1  0
  8 10  1  0
  8 11  2  0
  9 14  1  0
  9 16  2  0
 10 12  1  0
 10 17  2  0
 12 19  2  0
 13 14  2  0
 13 15  1  0
 15 18  2  0
 16 18  1  0
 17 21  1  0
 19 20  1  0
 20 21  2  0
M  END

> <chembl_id>
CHEMBL1406945

> <chembl_pref_name>
None

$$$$

     RDKit          2D

 25 27  0  0  0  0  0  0  0  0999 V2000
    0.1185   -1.5425    0.0000 O   0  0  0  0  0  0  0  0  0  0  0  0
    2.9764   -0.7175    0.0000 O   0  0  0  0  0  0  0  0  0  0  0  0
    2.2619   -1.9550    0.0000 N   0  0  0  0  0  0  0  0  0  0  0  0
    1.5475   -0.7175    0.0000 N   0  0  0  0  0  0  0  0  0  0  0  0
    0.8330    0.5200    0.0000 N   0  0  0  0  0  0  0  0  0  0  0  0
    0.1185   -0.7175    0.0000 N   0  0  0  0  0  0  0  0  0  0  0  0
    1.5475   -1.5425    0.0000 C   0  0  0  0  0  0  0  0  0  0  0  0
    0.8330   -1.9550    0.0000 C   0  0  0  0  0  0  0  0  0  0  0  0
    0.8330   -2.7800    0.0000 C   0  0  0  0  0  0  0  0  0  0  0  0
    2.9764   -1.5425    0.0000 C   0  0  0  0  0  0  0  0  0  0  0  0
    0.8330   -0.3050    0.0000 C   0  0  0  0  0  0  0  0  0  0  0  0
    3.6909   -1.9550    0.0000 C   0  0  0  0  0  0  0  0  0  0  0  0
    1.5475   -3.1925    0.0000 C   0  0  0  0  0  0  0  0  0  0  0  0
    0.1185   -3.1925    0.0000 C   0  0  0  0  0  0  0  0  0  0  0  0
    4.4053   -1.5425    0.0000 C   0  0  0  0  0  0  0  0  0  0  0  0
    3.6909   -2.7800    0.0000 C   0  0  0  0  0  0  0  0  0  0  0  0
    1.5475   -4.0175    0.0000 C   0  0  0  0  0  0  0  0  0  0  0  0
    0.1185   -4.0175    0.0000 C   0  0  0  0  0  0  0  0  0  0  0  0
    0.1185    0.9325    0.0000 C   0  0  0  0  0  0  0  0  0  0  0  0
   -0.5960   -0.3050    0.0000 C   0  0  0  0  0  0  0  0  0  0  0  0
    0.8330   -4.4300    0.0000 C   0  0  0  0  0  0  0  0  0  0  0  0
    5.1198   -1.9550    0.0000 C   0  0  0  0  0  0  0  0  0  0  0  0
    4.4053   -3.1925    0.0000 C   0  0  0  0  0  0  0  0  0  0  0  0
   -0.5960    0.5200    0.0000 C   0  0  0  0  0  0  0  0  0  0  0  0
    5.1198   -2.7800    0.0000 C   0  0  0  0  0  0  0  0  0  0  0  0
  1  8  2  0
  2 10  2  0
  3  7  1  0
  3 10  1  0
  4  7  1  0
  4 11  1  0
  5 11  2  0
  5 19  1  0
  6 11  1  0
  6 20  2  0
  7  8  1  0
  8  9  1  0
  9 13  2  0
  9 14  1  0
 10 12  1  0
 12 15  2  0
 12 16  1  0
 13 17  1  0
 14 18  2  0
 15 22  1  0
 16 23  2  0
 17 21  2  0
 18 21  1  0
 19 24  2  0
 20 24  1  0
 22 25  2  0
 23 25  1  0
M  END

> <chembl_id>
CHEMBL1350694

> <chembl_pref_name>
None

$$$$

     RDKit          2D

 29 31  0  0  0  0  0  0  0  0999 V2000
    1.9641   -4.5831    0.0000 C   0  0  0  0  0  0  0  0  0  0  0  0
    1.9641   -5.4049    0.0000 C   0  0  0  0  0  0  0  0  0  0  0  0
    2.6813   -5.8199    0.0000 C   0  0  0  0  0  0  0  0  0  0  0  0
    3.3944   -5.4049    0.0000 C   0  0  0  0  0  0  0  0  0  0  0  0
    3.3944   -4.5831    0.0000 C   0  0  0  0  0  0  0  0  0  0  0  0
    2.6813   -4.1681    0.0000 C   0  0  0  0  0  0  0  0  0  0  0  0
    5.4139   -3.8903    0.0000 C   0  0  0  0  0  0  0  0  0  0  0  0
    6.2330   -3.9790    0.0000 C   0  0  0  0  0  0  0  0  0  0  0  0
    6.5693   -4.7305    0.0000 C   0  0  0  0  0  0  0  0  0  0  0  0
    7.3884   -4.8192    0.0000 C   0  0  0  0  0  0  0  0  0  0  0  0
    7.8713   -4.1522    0.0000 C   0  0  0  0  0  0  0  0  0  0  0  0
    7.5391   -3.3966    0.0000 C   0  0  0  0  0  0  0  0  0  0  0  0
    6.7159   -3.3120    0.0000 C   0  0  0  0  0  0  0  0  0  0  0  0
    2.6813   -6.6417    0.0000 O   0  0  0  0  0  0  0  0  0  0  0  0
    3.3944   -7.0568    0.0000 C   0  0  0  0  0  0  0  0  0  0  0  0
    1.2510   -5.8199    0.0000 O   0  0  0  0  0  0  0  0  0  0  0  0
    1.2510   -6.6417    0.0000 C   0  0  0  0  0  0  0  0  0  0  0  0
    1.2510   -4.1681    0.0000 O   0  0  0  0  0  0  0  0  0  0  0  0
    0.5379   -4.5831    0.0000 C   0  0  0  0  0  0  0  0  0  0  0  0
    7.7247   -5.5706    0.0000 N   0  0  0  0  0  0  0  0  0  0  0  0
    8.5437   -5.6593    0.0000 O   0  0  0  0  0  0  0  0  0  0  0  0
    7.2377   -6.2376    0.0000 O   0  0  0  0  0  0  0  0  0  0  0  0
    8.6944   -4.2367    0.0000 O   0  0  0  0  0  0  0  0  0  0  0  0
    9.1773   -3.5697    0.0000 C   0  0  0  0  0  0  0  0  0  0  0  0
    4.1074   -4.1681    0.0000 C   0  0  0  0  0  0  0  0  0  0  0  0
    4.8630   -4.5044    0.0000 C   0  0  0  0  0  0  0  0  0  0  0  0
    4.9989   -3.1773    0.0000 N   0  0  0  0  0  0  0  0  0  0  0  0
    4.1919   -3.3490    0.0000 N   0  0  0  0  0  0  0  0  0  0  0  0
    5.3351   -2.4258    0.0000 C   0  0  0  0  0  0  0  0  0  0  0  0
  5 25  1  0
  1  2  2  0
 14 15  1  0
  3 14  1  0
 26  7  1  0
  3  4  2  0
 16 17  1  0
  2 16  1  0
  7  8  1  0
 18 19  1  0
  1 18  1  0
  8  9  2  0
  4  5  1  0
  9 10  1  0
 20 21  2  0
 20 22  1  0
 10 20  1  0
  2  3  1  0
 10 11  2  0
 23 24  1  0
 11 23  1  0
 25 26  1  0
  5  6  2  0
 11 12  1  0
  6  1  1  0
 12 13  2  0
 27 28  1  0
 28 25  2  0
 27  7  1  0
 13  8  1  0
 27 29  1  0
M  CHG  2  20   1  22  -1
M  END

> <chembl_id>
CHEMBL1084694

> <chembl_pref_name>
None

$$$$

     RDKit          2D

 41 44  0  0  0  0  0  0  0  0999 V2000
   -0.1762  -12.1891    0.0000 C   0  0  0  0  0  0  0  0  0  0  0  0
   -3.7333  -10.9213    0.0000 C   0  0  0  0  0  0  0  0  0  0  0  0
   -3.0227  -11.3405    0.0000 C   0  0  0  0  0  0  0  0  0  0  0  0
   -2.3043  -10.9348    0.0000 O   0  0  0  0  0  0  0  0  0  0  0  0
   -1.5938  -11.3541    0.0000 C   0  0  0  0  0  0  0  0  0  0  0  0
   -0.8754  -10.9484    0.0000 N   0  0  0  0  0  0  0  0  0  0  0  0
   -0.1649  -11.3677    0.0000 C   0  0  0  0  0  0  0  0  0  0  0  0
    0.5534  -10.9620    0.0000 C   0  0  0  0  0  0  0  0  0  0  0  0
    1.2639  -11.3812    0.0000 N   0  0  0  0  0  0  0  0  0  0  0  0
    1.9718  -10.9756    0.0000 C   0  0  0  0  0  0  0  0  0  0  0  0
    2.7009  -11.3806    0.0000 C   0  0  0  0  0  0  0  0  0  0  0  0
    3.4112  -10.9609    0.0000 N   0  0  0  0  0  0  0  0  0  0  0  0
    2.7093  -12.2056    0.0000 C   0  0  0  0  0  0  0  0  0  0  0  0
    4.1298  -11.3661    0.0000 C   0  0  0  0  0  0  0  0  0  0  0  0
    4.8401  -10.9463    0.0000 O   0  0  0  0  0  0  0  0  0  0  0  0
    4.1382  -12.1910    0.0000 O   0  0  0  0  0  0  0  0  0  0  0  0
    5.5586  -11.3519    0.0000 C   0  0  0  0  0  0  0  0  0  0  0  0
    1.2566  -12.2062    0.0000 C   0  0  0  0  0  0  0  0  0  0  0  0
   -1.6050  -12.1695    0.0000 O   0  0  0  0  0  0  0  0  0  0  0  0
    6.2299  -10.8771    0.0000 C   0  0  0  0  0  0  0  0  0  0  0  0
    7.0070  -11.1430    0.0000 C   0  0  0  0  0  0  0  0  0  0  0  0
    7.4988  -10.4840    0.0000 N   0  0  0  0  0  0  0  0  0  0  0  0
    7.0239   -9.8127    0.0000 N   0  0  0  0  0  0  0  0  0  0  0  0
    6.2388  -10.0569    0.0000 C   0  0  0  0  0  0  0  0  0  0  0  0
   -3.7070  -10.0923    0.0000 C   0  0  0  0  0  0  0  0  0  0  0  0
   -4.4845   -9.8165    0.0000 N   0  0  0  0  0  0  0  0  0  0  0  0
   -4.9871  -10.4708    0.0000 N   0  0  0  0  0  0  0  0  0  0  0  0
   -4.5201  -11.1508    0.0000 C   0  0  0  0  0  0  0  0  0  0  0  0
   -0.5958  -12.9000    0.0000 C   0  0  0  0  0  0  0  0  0  0  0  0
   -1.4223  -12.8893    0.0000 C   0  0  0  0  0  0  0  0  0  0  0  0
   -1.8418  -13.5993    0.0000 C   0  0  0  0  0  0  0  0  0  0  0  0
   -1.4360  -14.3191    0.0000 C   0  0  0  0  0  0  0  0  0  0  0  0
   -0.6062  -14.3244    0.0000 C   0  0  0  0  0  0  0  0  0  0  0  0
   -0.1904  -13.6138    0.0000 C   0  0  0  0  0  0  0  0  0  0  0  0
    0.5384  -12.6123    0.0000 C   0  0  0  0  0  0  0  0  0  0  0  0
    2.2917  -12.9167    0.0000 C   0  0  0  0  0  0  0  0  0  0  0  0
    1.4659  -12.9077    0.0000 C   0  0  0  0  0  0  0  0  0  0  0  0
    1.0484  -13.6180    0.0000 C   0  0  0  0  0  0  0  0  0  0  0  0
    1.4554  -14.3363    0.0000 C   0  0  0  0  0  0  0  0  0  0  0  0
    2.2844  -14.3398    0.0000 C   0  0  0  0  0  0  0  0  0  0  0  0
    2.6982  -13.6289    0.0000 C   0  0  0  0  0  0  0  0  0  0  0  0
  9 10  1  0
  5  6  1  0
 10 11  1  0
  5 19  2  0
 21 22  1  0
 22 23  1  0
 23 24  2  0
 24 20  1  0
  2 25  1  0
 11 12  1  0
  3  4  1  0
 11 13  1  1
  6  7  1  0
 25 26  2  0
 26 27  1  0
 27 28  1  0
 28  2  2  0
 12 14  1  0
  1 29  1  0
  2  3  1  0
 29 30  2  0
 14 15  1  0
 30 31  1  0
  7  8  1  0
 31 32  2  0
 14 16  2  0
 32 33  1  0
  7  1  1  6
 33 34  2  0
 34 29  1  0
 15 17  1  0
 18 35  1  0
  4  5  1  0
 13 36  1  0
  9 18  1  0
 36 37  2  0
  8  9  1  0
 37 38  1  0
 38 39  2  0
 17 20  1  0
 39 40  1  0
 20 21  2  0
 40 41  2  0
 41 36  1  0
M  END

> <chembl_id>
CHEMBL1080604

> <chembl_pref_name>
None

$$$$

     RDKit          2D

 41 46  0  0  0  0  0  0  0  0999 V2000
    0.1884  -15.3496    0.0000 C   0  0  0  0  0  0  0  0  0  0  0  0
   -0.3000  -16.0177    0.0000 N   0  0  0  0  0  0  0  0  0  0  0  0
    0.1851  -16.6839    0.0000 C   0  0  0  0  0  0  0  0  0  0  0  0
    0.9719  -15.6084    0.0000 C   0  0  0  0  0  0  0  0  0  0  0  0
    0.9698  -16.4334    0.0000 C   0  0  0  0  0  0  0  0  0  0  0  0
    1.7538  -16.6903    0.0000 C   0  0  0  0  0  0  0  0  0  0  0  0
    2.2405  -16.0241    0.0000 N   0  0  0  0  0  0  0  0  0  0  0  0
    1.7572  -15.3555    0.0000 C   0  0  0  0  0  0  0  0  0  0  0  0
    3.0625  -16.0208    0.0000 C   0  0  0  0  0  0  0  0  0  0  0  0
    3.4778  -16.7337    0.0000 C   0  0  0  0  0  0  0  0  0  0  0  0
    3.4722  -15.3047    0.0000 O   0  0  0  0  0  0  0  0  0  0  0  0
    0.9667  -14.7833    0.0000 H   0  0  0  0  0  0  0  0  0  0  0  0
    0.9625  -17.2583    0.0000 H   0  0  0  0  0  0  0  0  0  0  0  0
    3.0665  -17.4497    0.0000 C   0  0  0  0  0  0  0  0  0  0  0  0
    3.4811  -18.1620    0.0000 N   0  0  0  0  0  0  0  0  0  0  0  0
    4.3070  -18.1592    0.0000 C   0  0  0  0  0  0  0  0  0  0  0  0
    4.7165  -17.4381    0.0000 N   0  0  0  0  0  0  0  0  0  0  0  0
    4.2995  -16.7287    0.0000 C   0  0  0  0  0  0  0  0  0  0  0  0
    4.7071  -16.0114    0.0000 C   0  0  0  0  0  0  0  0  0  0  0  0
    2.2415  -17.4521    0.0000 C   0  0  0  0  0  0  0  0  0  0  0  0
   -1.1250  -16.0167    0.0000 C   0  0  0  0  0  0  0  0  0  0  0  0
   -1.5384  -16.7306    0.0000 C   0  0  0  0  0  0  0  0  0  0  0  0
   -2.3634  -16.7297    0.0000 C   0  0  0  0  0  0  0  0  0  0  0  0
   -2.7767  -17.4436    0.0000 C   0  0  0  0  0  0  0  0  0  0  0  0
   -2.7750  -16.0147    0.0000 C   0  0  0  0  0  0  0  0  0  0  0  0
   -2.3606  -15.3029    0.0000 C   0  0  0  0  0  0  0  0  0  0  0  0
   -2.7688  -14.5901    0.0000 C   0  0  0  0  0  0  0  0  0  0  0  0
   -3.5941  -14.5849    0.0000 N   0  0  0  0  0  0  0  0  0  0  0  0
   -4.0097  -15.2987    0.0000 C   0  0  0  0  0  0  0  0  0  0  0  0
   -3.5999  -16.0177    0.0000 C   0  0  0  0  0  0  0  0  0  0  0  0
   -3.6008  -17.4374    0.0000 C   0  0  0  0  0  0  0  0  0  0  0  0
   -4.0141  -18.1505    0.0000 C   0  0  0  0  0  0  0  0  0  0  0  0
   -3.6024  -18.8665    0.0000 C   0  0  0  0  0  0  0  0  0  0  0  0
   -2.7731  -18.8648    0.0000 C   0  0  0  0  0  0  0  0  0  0  0  0
   -2.3636  -18.1511    0.0000 C   0  0  0  0  0  0  0  0  0  0  0  0
   -4.0031  -13.8683    0.0000 S   0  0  0  0  0  0  0  0  0  0  0  0
   -3.5870  -13.1559    0.0000 O   0  0  0  0  0  0  0  0  0  0  0  0
   -4.8280  -13.8642    0.0000 O   0  0  0  0  0  0  0  0  0  0  0  0
   -4.4208  -13.1500    0.0000 C   0  0  0  0  0  0  0  0  0  0  0  0
   -4.4235  -12.3190    0.0000 C   0  0  0  0  0  0  0  0  0  0  0  0
   -5.1418  -12.7368    0.0000 C   0  0  0  0  0  0  0  0  0  0  0  0
  7  9  1  0
 14 20  1  0
  2 21  1  0
  9 10  1  0
 21 22  1  0
  4  1  1  0
 22 23  1  0
  9 11  2  0
 23 24  1  0
  1  2  1  0
 23 25  1  0
 25 26  1  0
  4 12  1  1
  2  3  1  0
  5 13  1  1
  3  5  1  0
 10 14  2  0
 25 30  1  0
 26 27  1  0
 27 28  1  0
 28 29  1  0
 29 30  1  0
  5  6  1  0
 24 31  2  0
 14 15  1  0
 31 32  1  0
  6  7  1  0
 32 33  2  0
 15 16  2  0
 33 34  1  0
  7  8  1  0
 34 35  2  0
 35 24  1  0
 16 17  1  0
 28 36  1  0
  8  4  1  0
 36 37  2  0
 17 18  2  0
 36 38  2  0
 18 10  1  0
 36 39  1  0
 40 39  1  0
 41 40  1  0
 39 41  1  0
  4  5  1  0
 18 19  1  0
M  END

> <chembl_id>
CHEMBL1270694

> <chembl_pref_name>
None

$$$$

     RDKit          2D

 56 64  0  0  0  0  0  0  0  0999 V2000
   -2.2246  -17.4563    0.0000 C   0  0  0  0  0  0  0  0  0  0  0  0
   -2.2381  -18.2724    0.0000 C   0  0  0  0  0  0  0  0  0  0  0  0
   -1.5387  -18.6913    0.0000 C   0  0  0  0  0  0  0  0  0  0  0  0
   -0.8281  -18.2948    0.0000 C   0  0  0  0  0  0  0  0  0  0  0  0
   -0.8146  -17.4777    0.0000 C   0  0  0  0  0  0  0  0  0  0  0  0
   -1.5041  -17.0629    0.0000 C   0  0  0  0  0  0  0  0  0  0  0  0
   -2.9708  -17.0882    0.0000 C   0  0  0  0  0  0  0  0  0  0  0  0
   -0.0505  -17.1285    0.0000 C   0  0  0  0  0  0  0  0  0  0  0  0
   -2.0985  -10.7297    0.0000 C   0  0  0  0  0  0  0  0  0  0  0  0
   -2.1142  -11.5418    0.0000 C   0  0  0  0  0  0  0  0  0  0  0  0
   -1.3681  -11.9490    0.0000 N   0  0  0  0  0  0  0  0  0  0  0  0
   -0.6268  -11.5384    0.0000 C   0  0  0  0  0  0  0  0  0  0  0  0
   -0.6593  -10.7441    0.0000 C   0  0  0  0  0  0  0  0  0  0  0  0
   -1.3584  -10.3243    0.0000 C   0  0  0  0  0  0  0  0  0  0  0  0
    0.2018  -11.8952    0.0000 C   0  0  0  0  0  0  0  0  0  0  0  0
    0.3551  -12.7071    0.0000 N   0  0  0  0  0  0  0  0  0  0  0  0
    1.1653  -12.8893    0.0000 C   0  0  0  0  0  0  0  0  0  0  0  0
    1.5225  -12.1546    0.0000 C   0  0  0  0  0  0  0  0  0  0  0  0
    0.9481  -11.5609    0.0000 O   0  0  0  0  0  0  0  0  0  0  0  0
   -2.9538  -11.8850    0.0000 C   0  0  0  0  0  0  0  0  0  0  0  0
   -3.6892  -11.5337    0.0000 O   0  0  0  0  0  0  0  0  0  0  0  0
   -4.2868  -12.1023    0.0000 C   0  0  0  0  0  0  0  0  0  0  0  0
   -3.9460  -12.8512    0.0000 C   0  0  0  0  0  0  0  0  0  0  0  0
   -3.1296  -12.6848    0.0000 N   0  0  0  0  0  0  0  0  0  0  0  0
    1.4669  -13.7419    0.0000 C   0  0  0  0  0  0  0  0  0  0  0  0
    0.9565  -14.3893    0.0000 N   0  0  0  0  0  0  0  0  0  0  0  0
    1.3531  -15.1000    0.0000 C   0  0  0  0  0  0  0  0  0  0  0  0
    2.1343  -14.9013    0.0000 C   0  0  0  0  0  0  0  0  0  0  0  0
    2.2054  -14.0770    0.0000 O   0  0  0  0  0  0  0  0  0  0  0  0
   -4.2777  -13.6934    0.0000 C   0  0  0  0  0  0  0  0  0  0  0  0
   -5.0320  -13.9967    0.0000 O   0  0  0  0  0  0  0  0  0  0  0  0
   -4.9996  -14.8178    0.0000 C   0  0  0  0  0  0  0  0  0  0  0  0
   -4.2239  -15.0601    0.0000 C   0  0  0  0  0  0  0  0  0  0  0  0
   -3.8066  -14.3631    0.0000 N   0  0  0  0  0  0  0  0  0  0  0  0
   -3.9295  -15.8825    0.0000 C   0  0  0  0  0  0  0  0  0  0  0  0
   -4.5528  -16.3825    0.0000 O   0  0  0  0  0  0  0  0  0  0  0  0
    1.0139  -15.9183    0.0000 C   0  0  0  0  0  0  0  0  0  0  0  0
    1.6150  -16.4488    0.0000 O   0  0  0  0  0  0  0  0  0  0  0  0
   -1.3420   -9.4952    0.0000 O   0  0  0  0  0  0  0  0  0  0  0  0
   -0.6157   -9.0948    0.0000 C   0  0  0  0  0  0  0  0  0  0  0  0
    0.0941   -9.5236    0.0000 C   0  0  0  0  0  0  0  0  0  0  0  0
    0.8204   -9.1233    0.0000 C   0  0  0  0  0  0  0  0  0  0  0  0
    1.5302   -9.5521    0.0000 N   0  0  0  0  0  0  0  0  0  0  0  0
    1.5960  -10.3749    0.0000 C   0  0  0  0  0  0  0  0  0  0  0  0
    2.2898   -9.2265    0.0000 C   0  0  0  0  0  0  0  0  0  0  0  0
    2.4758   -8.4183    0.0000 O   0  0  0  0  0  0  0  0  0  0  0  0
    0.9675  -10.9159    0.0000 O   0  0  0  0  0  0  0  0  0  0  0  0
    2.8324   -9.8535    0.0000 C   0  0  0  0  0  0  0  0  0  0  0  0
    2.4023  -10.5578    0.0000 C   0  0  0  0  0  0  0  0  0  0  0  0
    2.7971  -11.2803    0.0000 C   0  0  0  0  0  0  0  0  0  0  0  0
    3.6219  -11.2998    0.0000 C   0  0  0  0  0  0  0  0  0  0  0  0
    4.0502  -10.5907    0.0000 C   0  0  0  0  0  0  0  0  0  0  0  0
    3.6530   -9.8711    0.0000 C   0  0  0  0  0  0  0  0  0  0  0  0
   -1.5514  -19.5205    0.0000 Br  0  0  0  0  0  0  0  0  0  0  0  0
   -3.2187  -16.3013    0.0000 N   0  0  0  0  0  0  0  0  0  0  0  0
    0.3489  -16.4066    0.0000 N   0  0  0  0  0  0  0  0  0  0  0  0
 16 17  1  0
 17 18  2  0
 18 19  1  0
 19 15  1  0
 12 15  1  0
 20 21  1  0
 21 22  1  0
 22 23  2  0
 23 24  1  0
 24 20  2  0
 10 20  1  0
 17 25  1  0
 25 26  2  0
 26 27  1  0
 27 28  2  0
 28 29  1  0
 29 25  1  0
 23 30  1  0
 30 31  1  0
 31 32  1  0
 32 33  2  0
 33 34  1  0
 34 30  2  0
 33 35  1  0
 35 36  2  0
 27 37  1  0
 37 38  2  0
 14 39  1  0
  1  2  2  0
 39 40  1  0
  2  3  1  0
 40 41  1  0
  3  4  2  0
 41 42  1  0
  4  5  1  0
 42 43  1  0
 43 44  1  0
  5  6  2  0
  6  1  1  0
 44 49  1  0
 48 45  1  0
 45 43  1  0
  1  7  1  0
 45 46  2  0
  5  8  1  0
 44 47  2  0
 48 49  2  0
  9 10  2  0
 49 50  1  0
 10 11  1  0
 50 51  2  0
 11 12  2  0
 51 52  1  0
 12 13  1  0
 52 53  2  0
 53 48  1  0
 13 14  2  0
  3 54  1  0
 14  9  1  0
 15 16  2  0
 35 55  1  0
  7 55  1  0
 37 56  1  0
  8 56  1  0
M  END

> <chembl_id>
CHEMBL1094064

> <chembl_pref_name>
None

$$$$

     RDKit          2D

 32 35  0  0  0  0  0  0  0  0999 V2000
    4.4846   -2.9381    0.0000 O   0  0  0  0  0  0  0  0  0  0  0  0
    2.3883    0.0218    0.0000 O   0  0  0  0  0  0  0  0  0  0  0  0
    3.1027   -1.2157    0.0000 N   0  0  0  0  0  0  0  0  0  0  0  0
    3.1498   -2.9381    0.0000 N   0  0  0  0  0  0  0  0  0  0  0  0
    4.2297   -3.7227    0.0000 N   0  0  0  0  0  0  0  0  0  0  0  0
    3.8172    0.0218    0.0000 C   0  0  0  0  0  0  0  0  0  0  0  0
    3.1027   -0.3907    0.0000 C   0  0  0  0  0  0  0  0  0  0  0  0
    3.8172    0.8468    0.0000 C   0  0  0  0  0  0  0  0  0  0  0  0
    4.5317   -0.3907    0.0000 C   0  0  0  0  0  0  0  0  0  0  0  0
    3.8172   -2.4532    0.0000 C   0  0  0  0  0  0  0  0  0  0  0  0
    3.4047   -3.7227    0.0000 C   0  0  0  0  0  0  0  0  0  0  0  0
    3.8172   -1.6282    0.0000 C   0  0  0  0  0  0  0  0  0  0  0  0
    2.9198   -4.3901    0.0000 C   0  0  0  0  0  0  0  0  0  0  0  0
    2.3883   -1.6282    0.0000 C   0  0  0  0  0  0  0  0  0  0  0  0
    3.1027    1.2593    0.0000 C   0  0  0  0  0  0  0  0  0  0  0  0
    5.2461    0.0218    0.0000 C   0  0  0  0  0  0  0  0  0  0  0  0
    4.5317    1.2593    0.0000 C   0  0  0  0  0  0  0  0  0  0  0  0
    4.5317   -1.2157    0.0000 C   0  0  0  0  0  0  0  0  0  0  0  0
    3.2553   -5.1438    0.0000 C   0  0  0  0  0  0  0  0  0  0  0  0
    2.0993   -4.3039    0.0000 C   0  0  0  0  0  0  0  0  0  0  0  0
    3.1027    2.0843    0.0000 C   0  0  0  0  0  0  0  0  0  0  0  0
    5.9606   -0.3907    0.0000 C   0  0  0  0  0  0  0  0  0  0  0  0
    4.5317    2.0843    0.0000 C   0  0  0  0  0  0  0  0  0  0  0  0
    5.2461   -1.6282    0.0000 C   0  0  0  0  0  0  0  0  0  0  0  0
    1.9499   -5.7250    0.0000 C   0  0  0  0  0  0  0  0  0  0  0  0
    2.7704   -5.8113    0.0000 C   0  0  0  0  0  0  0  0  0  0  0  0
    1.6144   -4.9713    0.0000 C   0  0  0  0  0  0  0  0  0  0  0  0
    2.3883   -2.4532    0.0000 C   0  0  0  0  0  0  0  0  0  0  0  0
    1.6738   -1.2157    0.0000 C   0  0  0  0  0  0  0  0  0  0  0  0
    3.8172    2.4968    0.0000 C   0  0  0  0  0  0  0  0  0  0  0  0
    5.9606   -1.2157    0.0000 C   0  0  0  0  0  0  0  0  0  0  0  0
    1.4650   -6.3925    0.0000 C   0  0  0  0  0  0  0  0  0  0  0  0
  1  5  1  0
  1 10  1  0
  2  7  2  0
  3  7  1  0
  3 12  1  0
  3 14  1  0
  4 10  2  0
  4 11  1  0
  5 11  2  0
  6  7  1  0
  6  8  1  0
  6  9  1  0
  8 15  2  0
  8 17  1  0
  9 16  2  0
  9 18  1  0
 10 12  1  0
 11 13  1  0
 13 19  2  0
 13 20  1  0
 14 28  1  0
 14 29  1  0
 15 21  1  0
 16 22  1  0
 17 23  2  0
 18 24  2  0
 19 26  1  0
 20 27  2  0
 21 30  2  0
 22 31  2  0
 23 30  1  0
 24 31  1  0
 25 26  2  0
 25 27  1  0
 25 32  1  0
M  END

> <chembl_id>
CHEMBL1304694

> <chembl_pref_name>
None

$$$$

     RDKit          2D

 26 28  0  0  0  0  0  0  0  0999 V2000
   -1.3337    3.4739    0.0000 S   0  0  0  0  0  0  0  0  0  0  0  0
   -1.7706    0.9307    0.0000 O   0  0  0  0  0  0  0  0  0  0  0  0
   -0.9212    2.7594    0.0000 O   0  0  0  0  0  0  0  0  0  0  0  0
   -1.7462    4.1884    0.0000 O   0  0  0  0  0  0  0  0  0  0  0  0
    1.5242    2.6489    0.0000 O   0  0  0  0  0  0  0  0  0  0  0  0
    5.0966    3.8864    0.0000 O   0  0  0  0  0  0  0  0  0  0  0  0
   -1.4350    1.6844    0.0000 N   0  0  0  0  0  0  0  0  0  0  0  0
   -2.5911    1.0169    0.0000 N   0  0  0  0  0  0  0  0  0  0  0  0
   -0.6192    3.8864    0.0000 N   0  0  0  0  0  0  0  0  0  0  0  0
    2.2387    3.8864    0.0000 N   0  0  0  0  0  0  0  0  0  0  0  0
   -2.0481    3.0614    0.0000 C   0  0  0  0  0  0  0  0  0  0  0  0
   -2.0481    2.2364    0.0000 C   0  0  0  0  0  0  0  0  0  0  0  0
   -2.7626    1.8239    0.0000 C   0  0  0  0  0  0  0  0  0  0  0  0
   -2.7626    3.4739    0.0000 C   0  0  0  0  0  0  0  0  0  0  0  0
   -3.4771    2.2364    0.0000 C   0  0  0  0  0  0  0  0  0  0  0  0
   -3.4771    3.0614    0.0000 C   0  0  0  0  0  0  0  0  0  0  0  0
    0.0953    3.4739    0.0000 C   0  0  0  0  0  0  0  0  0  0  0  0
    0.8097    3.8864    0.0000 C   0  0  0  0  0  0  0  0  0  0  0  0
    2.9532    3.4739    0.0000 C   0  0  0  0  0  0  0  0  0  0  0  0
    1.5242    3.4739    0.0000 C   0  0  0  0  0  0  0  0  0  0  0  0
    4.3821    3.4739    0.0000 C   0  0  0  0  0  0  0  0  0  0  0  0
    3.6676    3.8864    0.0000 C   0  0  0  0  0  0  0  0  0  0  0  0
    2.9532    2.6489    0.0000 C   0  0  0  0  0  0  0  0  0  0  0  0
    4.3821    2.6489    0.0000 C   0  0  0  0  0  0  0  0  0  0  0  0
    3.6676    2.2364    0.0000 C   0  0  0  0  0  0  0  0  0  0  0  0
    5.0966    4.7114    0.0000 C   0  0  0  0  0  0  0  0  0  0  0  0
  1  3  2  0
  1  4  2  0
  1  9  1  0
  1 11  1  0
  2  7  1  0
  2  8  1  0
  5 20  2  0
  6 21  1  0
  6 26  1  0
  7 12  2  0
  8 13  2  0
  9 17  1  0
 10 19  1  0
 10 20  1  0
 11 12  1  0
 11 14  2  0
 12 13  1  0
 13 15  1  0
 14 16  1  0
 15 16  2  0
 17 18  1  0
 18 20  1  0
 19 22  2  0
 19 23  1  0
 21 22  1  0
 21 24  2  0
 23 25  2  0
 24 25  1  0
M  END

> <chembl_id>
CHEMBL1340696

> <chembl_pref_name>
None

$$$$

     RDKit          2D

 37 41  0  0  0  0  0  0  0  0999 V2000
   -1.1224   -4.9092    0.0000 C   0  0  0  0  0  0  0  0  0  0  0  0
   -1.1224   -5.7350    0.0000 C   0  0  0  0  0  0  0  0  0  0  0  0
   -0.4112   -6.1410    0.0000 C   0  0  0  0  0  0  0  0  0  0  0  0
    0.3000   -5.7350    0.0000 C   0  0  0  0  0  0  0  0  0  0  0  0
    0.3000   -4.9092    0.0000 C   0  0  0  0  0  0  0  0  0  0  0  0
   -0.4112   -4.4895    0.0000 C   0  0  0  0  0  0  0  0  0  0  0  0
    1.0179   -6.1467    0.0000 C   0  0  0  0  0  0  0  0  0  0  0  0
    1.7324   -5.7373    0.0000 C   0  0  0  0  0  0  0  0  0  0  0  0
    2.4457   -6.1490    0.0000 C   0  0  0  0  0  0  0  0  0  0  0  0
    2.4412   -6.9726    0.0000 C   0  0  0  0  0  0  0  0  0  0  0  0
    3.1535   -7.3843    0.0000 N   0  0  0  0  0  0  0  0  0  0  0  0
    3.8690   -6.9747    0.0000 C   0  0  0  0  0  0  0  0  0  0  0  0
    3.8721   -6.1442    0.0000 C   0  0  0  0  0  0  0  0  0  0  0  0
    3.1546   -5.7366    0.0000 C   0  0  0  0  0  0  0  0  0  0  0  0
    3.1514   -4.9109    0.0000 N   0  0  0  0  0  0  0  0  0  0  0  0
    3.8684   -4.4930    0.0000 C   0  0  0  0  0  0  0  0  0  0  0  0
    4.5806   -4.9064    0.0000 C   0  0  0  0  0  0  0  0  0  0  0  0
    5.2923   -4.4892    0.0000 C   0  0  0  0  0  0  0  0  0  0  0  0
    3.8602   -3.6700    0.0000 C   0  0  0  0  0  0  0  0  0  0  0  0
    4.5687   -3.2547    0.0000 C   0  0  0  0  0  0  0  0  0  0  0  0
    5.2873   -3.6626    0.0000 C   0  0  0  0  0  0  0  0  0  0  0  0
    5.9026   -3.1077    0.0000 N   0  0  0  0  0  0  0  0  0  0  0  0
    5.5573   -2.3549    0.0000 C   0  0  0  0  0  0  0  0  0  0  0  0
    4.7389   -2.4452    0.0000 C   0  0  0  0  0  0  0  0  0  0  0  0
    3.1426   -3.2657    0.0000 C   0  0  0  0  0  0  0  0  0  0  0  0
   -1.8356   -6.1467    0.0000 S   0  0  0  0  0  0  0  0  0  0  0  0
   -2.5547   -5.7373    0.0000 N   0  0  0  0  0  0  0  0  0  0  0  0
   -2.2584   -6.8574    0.0000 O   0  0  0  0  0  0  0  0  0  0  0  0
   -1.2546   -6.7296    0.0000 O   0  0  0  0  0  0  0  0  0  0  0  0
   -2.5536   -4.9080    0.0000 C   0  0  0  0  0  0  0  0  0  0  0  0
   -3.2636   -4.4939    0.0000 C   0  0  0  0  0  0  0  0  0  0  0  0
   -3.9795   -4.9064    0.0000 N   0  0  0  0  0  0  0  0  0  0  0  0
   -3.9804   -5.7332    0.0000 C   0  0  0  0  0  0  0  0  0  0  0  0
   -3.2654   -6.1477    0.0000 C   0  0  0  0  0  0  0  0  0  0  0  0
   -4.6924   -4.4895    0.0000 C   0  0  0  0  0  0  0  0  0  0  0  0
    4.5850   -5.7320    0.0000 C   0  0  0  0  0  0  0  0  0  0  0  0
    5.3041   -5.3162    0.0000 N   0  0  0  0  0  0  0  0  0  0  0  0
  1  6  2  0
 17 18  1  0
 18 21  2  0
  8  9  1  0
 20 19  2  0
 19 16  1  0
 20 21  1  0
  2  3  2  0
  9 10  2  0
  3  4  1  0
 10 11  1  0
  4  5  2  0
 21 22  1  0
 22 23  1  0
 23 24  2  0
 24 20  1  0
 11 12  2  0
 19 25  1  0
  5  6  1  0
  2 26  1  0
 12 13  1  0
 26 27  1  0
 26 28  2  0
 13 14  2  0
 26 29  2  0
 27 30  1  0
 14  9  1  0
  4  7  1  0
 14 15  1  0
  1  2  1  0
 27 34  1  0
 30 31  1  0
 31 32  1  0
 32 33  1  0
 33 34  1  0
 15 16  1  0
 32 35  1  0
  7  8  2  0
 16 17  2  0
 13 36  1  0
 36 37  3  0
M  END

> <chembl_id>
CHEMBL1080994

> <chembl_pref_name>
None

$$$$

     RDKit          2D

 26 24  0  0  0  0  0  0  0  0999 V2000
   16.6410   -4.6762    0.0000 I   0  0  0  0  0  0  0  0  0  0  0  0
   15.2516   -5.6550    0.0000 N   0  0  0  0  0  0  0  0  0  0  0  0
   15.2341   -6.4720    0.0000 C   0  0  0  0  0  0  0  0  0  0  0  0
   15.9679   -5.2617    0.0000 C   0  0  0  0  0  0  0  0  0  0  0  0
    3.2440   -4.4574    0.0000 C   0  0  0  0  0  0  0  0  0  0  0  0
    3.9498   -4.0488    0.0000 C   0  0  0  0  0  0  0  0  0  0  0  0
    4.6555   -4.4533    0.0000 C   0  0  0  0  0  0  0  0  0  0  0  0
    5.3613   -4.0447    0.0000 C   0  0  0  0  0  0  0  0  0  0  0  0
    6.0670   -4.4492    0.0000 C   0  0  0  0  0  0  0  0  0  0  0  0
    6.7728   -4.0406    0.0000 C   0  0  0  0  0  0  0  0  0  0  0  0
    7.4785   -4.4450    0.0000 C   0  0  0  0  0  0  0  0  0  0  0  0
    8.1843   -4.0364    0.0000 C   0  0  0  0  0  0  0  0  0  0  0  0
    8.8901   -4.4409    0.0000 C   0  0  0  0  0  0  0  0  0  0  0  0
    9.5958   -4.0323    0.0000 C   0  0  0  0  0  0  0  0  0  0  0  0
   10.3016   -4.4368    0.0000 C   0  0  0  0  0  0  0  0  0  0  0  0
   11.0073   -4.0282    0.0000 C   0  0  0  0  0  0  0  0  0  0  0  0
   11.7131   -4.4326    0.0000 C   0  0  0  0  0  0  0  0  0  0  0  0
   12.4188   -4.0240    0.0000 C   0  0  0  0  0  0  0  0  0  0  0  0
   13.1270   -4.4318    0.0000 N   0  0  0  0  0  0  0  0  0  0  0  0
   12.4179   -3.2069    0.0000 O   0  0  0  0  0  0  0  0  0  0  0  0
   13.8342   -4.0224    0.0000 C   0  0  0  0  0  0  0  0  0  0  0  0
   14.5424   -4.4301    0.0000 C   0  0  0  0  0  0  0  0  0  0  0  0
    2.5358   -4.0497    0.0000 C   0  0  0  0  0  0  0  0  0  0  0  0
    1.8286   -4.4591    0.0000 C   0  0  0  0  0  0  0  0  0  0  0  0
   14.5434   -5.2473    0.0000 C   0  0  0  0  0  0  0  0  0  0  0  0
   15.9559   -6.0629    0.0000 C   0  0  0  0  0  0  0  0  0  0  0  0
  2  3  1  0
  2  4  1  0
  5  6  1  0
  6  7  1  0
  7  8  1  0
  8  9  1  0
  9 10  1  0
 10 11  1  0
 11 12  1  0
 12 13  1  0
 13 14  1  0
 14 15  1  0
 15 16  1  0
 16 17  1  0
 17 18  1  0
 18 19  1  0
 18 20  2  0
 19 21  1  0
 21 22  1  0
  5 23  1  0
 23 24  1  0
 22 25  1  0
 25  2  1  0
  2 26  1  0
M  CHG  2   1  -1   2   1
M  END

> <chembl_id>
CHEMBL2380521

> <chembl_pref_name>
None

$$$$

     RDKit          2D

 24 26  0  0  0  0  0  0  0  0999 V2000
    2.4185   -4.0034    0.0000 Cl  0  0  0  0  0  0  0  0  0  0  0  0
    3.7775    4.0500    0.0000 Cl  0  0  0  0  0  0  0  0  0  0  0  0
    4.2229   -0.6100    0.0000 N   0  0  0  0  0  0  0  0  0  0  0  0
    3.4383    0.4699    0.0000 N   0  0  0  0  0  0  0  0  0  0  0  0
    4.2229    0.2150    0.0000 C   0  0  0  0  0  0  0  0  0  0  0  0
    3.4383   -0.8650    0.0000 C   0  0  0  0  0  0  0  0  0  0  0  0
    2.9534   -0.1975    0.0000 C   0  0  0  0  0  0  0  0  0  0  0  0
    3.1833   -1.6496    0.0000 C   0  0  0  0  0  0  0  0  0  0  0  0
    5.0075   -0.8650    0.0000 C   0  0  0  0  0  0  0  0  0  0  0  0
    5.0075    0.4699    0.0000 C   0  0  0  0  0  0  0  0  0  0  0  0
    3.1833    1.2545    0.0000 C   0  0  0  0  0  0  0  0  0  0  0  0
    5.4924   -0.1975    0.0000 C   0  0  0  0  0  0  0  0  0  0  0  0
    3.7354    1.8676    0.0000 C   0  0  0  0  0  0  0  0  0  0  0  0
    3.7354   -2.2627    0.0000 C   0  0  0  0  0  0  0  0  0  0  0  0
    2.3764   -1.8211    0.0000 C   0  0  0  0  0  0  0  0  0  0  0  0
    3.4804   -3.0473    0.0000 C   0  0  0  0  0  0  0  0  0  0  0  0
    2.1214   -2.6057    0.0000 C   0  0  0  0  0  0  0  0  0  0  0  0
    2.6735   -3.2188    0.0000 C   0  0  0  0  0  0  0  0  0  0  0  0
    3.4804    2.6523    0.0000 C   0  0  0  0  0  0  0  0  0  0  0  0
    4.5423    1.6961    0.0000 C   0  0  0  0  0  0  0  0  0  0  0  0
    4.0325    3.2653    0.0000 C   0  0  0  0  0  0  0  0  0  0  0  0
    5.0944    2.3092    0.0000 C   0  0  0  0  0  0  0  0  0  0  0  0
    4.8394    3.0938    0.0000 C   0  0  0  0  0  0  0  0  0  0  0  0
    0.0000    0.0000    0.0000 Br  0  0  0  0  0  0  0  0  0  0  0  0
  1 18  1  0
  2 21  1  0
  3  5  1  0
  3  6  1  0
  3  9  1  0
  4  5  2  0
  4  7  1  0
  4 11  1  0
  5 10  1  0
  6  7  2  0
  6  8  1  0
  8 14  2  0
  8 15  1  0
  9 12  1  0
 10 12  1  0
 11 13  1  0
 13 19  1  0
 13 20  2  0
 14 16  1  0
 15 17  2  0
 16 18  2  0
 17 18  1  0
 19 21  2  0
 20 22  1  0
 21 23  1  0
 22 23  2  0
M  CHG  2   4   1  24  -1
M  END

> <chembl_id>
CHEMBL1406194

> <chembl_pref_name>
None

$$$$

     RDKit          2D

 30 32  0  0  0  0  0  0  0  0999 V2000
   -4.1205    2.1378    0.0000 S   0  0  0  0  0  0  0  0  0  0  0  0
    1.5953    1.3128    0.0000 F   0  0  0  0  0  0  0  0  0  0  0  0
    3.0242    2.1378    0.0000 F   0  0  0  0  0  0  0  0  0  0  0  0
    3.0242    3.7878    0.0000 F   0  0  0  0  0  0  0  0  0  0  0  0
   -0.5481    3.3753    0.0000 O   0  0  0  0  0  0  0  0  0  0  0  0
   -2.6916    1.3128    0.0000 O   0  0  0  0  0  0  0  0  0  0  0  0
   -5.5494    2.1378    0.0000 N   0  0  0  0  0  0  0  0  0  0  0  0
    0.1663    2.1378    0.0000 N   0  0  0  0  0  0  0  0  0  0  0  0
   -1.9771    2.5503    0.0000 N   0  0  0  0  0  0  0  0  0  0  0  0
   -6.2639    3.3753    0.0000 C   0  0  0  0  0  0  0  0  0  0  0  0
   -6.2639    2.5503    0.0000 C   0  0  0  0  0  0  0  0  0  0  0  0
    1.5953    2.1378    0.0000 C   0  0  0  0  0  0  0  0  0  0  0  0
    0.8808    2.5503    0.0000 C   0  0  0  0  0  0  0  0  0  0  0  0
   -4.8350    2.5503    0.0000 C   0  0  0  0  0  0  0  0  0  0  0  0
   -5.5494    3.7878    0.0000 C   0  0  0  0  0  0  0  0  0  0  0  0
    2.3097    2.5503    0.0000 C   0  0  0  0  0  0  0  0  0  0  0  0
   -4.8350    3.3753    0.0000 C   0  0  0  0  0  0  0  0  0  0  0  0
    2.3097    3.3753    0.0000 C   0  0  0  0  0  0  0  0  0  0  0  0
    0.8808    3.3753    0.0000 C   0  0  0  0  0  0  0  0  0  0  0  0
   -6.9784    3.7878    0.0000 C   0  0  0  0  0  0  0  0  0  0  0  0
   -6.9784    2.1378    0.0000 C   0  0  0  0  0  0  0  0  0  0  0  0
    1.5953    3.7878    0.0000 C   0  0  0  0  0  0  0  0  0  0  0  0
   -3.4060    2.5503    0.0000 C   0  0  0  0  0  0  0  0  0  0  0  0
   -0.5481    2.5503    0.0000 C   0  0  0  0  0  0  0  0  0  0  0  0
   -2.6916    2.1378    0.0000 C   0  0  0  0  0  0  0  0  0  0  0  0
   -7.6929    3.3753    0.0000 C   0  0  0  0  0  0  0  0  0  0  0  0
   -7.6929    2.5503    0.0000 C   0  0  0  0  0  0  0  0  0  0  0  0
   -5.5494    4.6128    0.0000 C   0  0  0  0  0  0  0  0  0  0  0  0
   -1.2626    2.1378    0.0000 C   0  0  0  0  0  0  0  0  0  0  0  0
   -3.4060    3.3753    0.0000 C   0  0  0  0  0  0  0  0  0  0  0  0
  1 14  1  0
  1 23  1  0
  2 12  1  0
  3 16  1  0
  4 18  1  0
  5 24  2  0
  6 25  2  0
  7 11  2  0
  7 14  1  0
  8 13  1  0
  8 24  1  0
  9 25  1  0
  9 29  1  0
 10 11  1  0
 10 15  2  0
 10 20  1  0
 11 21  1  0
 12 13  1  0
 12 16  2  0
 13 19  2  0
 14 17  2  0
 15 17  1  0
 15 28  1  0
 16 18  1  0
 18 22  2  0
 19 22  1  0
 20 26  2  0
 21 27  2  0
 23 25  1  0
 23 30  1  0
 24 29  1  0
 26 27  1  0
M  END

> <chembl_id>
CHEMBL1540594

> <chembl_pref_name>
None

$$$$

     RDKit          2D

  2  0  0  0  0  0  0  0  0  0999 V2000
    6.9563    2.1875    0.0000 Na  0  0  0  0  0 15  0  0  0  0  0  0
    6.1417    2.1875    0.0000 Br  0  0  0  0  0  0  0  0  0  0  0  0
M  CHG  2   1   1   2  -1
M  END

> <chembl_id>
CHEMBL1644694

> <chembl_pref_name>
SODIUM BROMIDE

$$$$

     RDKit          2D

 25 27  0  0  0  0  0  0  0  0999 V2000
   32.3341   -7.9752    0.0000 C   0  0  0  0  0  0  0  0  0  0  0  0
   32.3341   -8.8002    0.0000 C   0  0  0  0  0  0  0  0  0  0  0  0
   33.0462   -9.2086    0.0000 C   0  0  0  0  0  0  0  0  0  0  0  0
   33.0462   -7.5585    0.0000 C   0  0  0  0  0  0  0  0  0  0  0  0
   33.7582   -7.9752    0.0000 C   0  0  0  0  0  0  0  0  0  0  0  0
   33.7547   -8.8002    0.0000 C   0  0  0  0  0  0  0  0  0  0  0  0
   34.4634   -9.2134    0.0000 C   0  0  0  0  0  0  0  0  0  0  0  0
   35.1803   -8.8063    0.0000 N   0  0  0  0  0  0  0  0  0  0  0  0
   35.1838   -7.9812    0.0000 C   0  0  0  0  0  0  0  0  0  0  0  0
   34.4705   -7.5635    0.0000 C   0  0  0  0  0  0  0  0  0  0  0  0
   33.7509   -7.1501    0.0000 H   0  0  0  0  0  0  0  0  0  0  0  0
   33.7466   -9.6211    0.0000 H   0  0  0  0  0  0  0  0  0  0  0  0
   35.9005   -7.5725    0.0000 C   0  0  0  0  0  0  0  0  0  0  0  0
   36.6139   -7.9866    0.0000 O   0  0  0  0  0  0  0  0  0  0  0  0
   35.9059   -6.7453    0.0000 O   0  0  0  0  0  0  0  0  0  0  0  0
   31.6184   -7.5648    0.0000 O   0  0  0  0  0  0  0  0  0  0  0  0
   30.9052   -7.9794    0.0000 C   0  0  0  0  0  0  0  0  0  0  0  0
   30.1901   -7.5658    0.0000 C   0  0  0  0  0  0  0  0  0  0  0  0
   29.4772   -7.9797    0.0000 C   0  0  0  0  0  0  0  0  0  0  0  0
   29.4792   -8.8057    0.0000 C   0  0  0  0  0  0  0  0  0  0  0  0
   30.2000   -9.2158    0.0000 C   0  0  0  0  0  0  0  0  0  0  0  0
   30.9098   -8.7996    0.0000 C   0  0  0  0  0  0  0  0  0  0  0  0
   28.7664   -9.2230    0.0000 C   0  0  0  0  0  0  0  0  0  0  0  0
   28.0502   -8.8136    0.0000 O   0  0  0  0  0  0  0  0  0  0  0  0
   28.7699  -10.0480    0.0000 O   0  0  0  0  0  0  0  0  0  0  0  0
  1  2  1  0
  1  4  1  0
  2  3  1  0
  3  6  1  0
  5  4  1  0
  5  6  1  0
  5 10  1  0
  6  7  1  0
  7  8  1  0
  8  9  1  0
  9 10  1  0
  5 11  1  1
  6 12  1  1
  9 13  1  1
 13 14  1  0
 13 15  2  0
  1 16  1  6
 16 17  1  0
 17 18  2  0
 18 19  1  0
 19 20  2  0
 20 21  1  0
 21 22  2  0
 22 17  1  0
 23 24  1  0
 23 25  2  0
 20 23  1  0
M  END

> <chembl_id>
CHEMBL3040686

> <chembl_pref_name>
None

$$$$

     RDKit          2D

 52 54  0  0  0  0  0  0  0  0999 V2000
   10.1125   -6.6458    0.0000 C   0  0  0  0  0  0  0  0  0  0  0  0
   10.8270   -6.2333    0.0000 C   0  0  0  0  0  0  0  0  0  0  0  0
   11.5414   -6.6458    0.0000 C   0  0  0  0  0  0  0  0  0  0  0  0
   10.1125   -7.4708    0.0000 C   0  0  0  0  0  0  0  0  0  0  0  0
   11.5414   -7.4708    0.0000 C   0  0  0  0  0  0  0  0  0  0  0  0
    9.3980   -7.8833    0.0000 C   0  0  0  0  0  0  0  0  0  0  0  0
    9.3980   -8.7083    0.0000 C   0  0  0  0  0  0  0  0  0  0  0  0
   10.1125   -9.1208    0.0000 C   0  0  0  0  0  0  0  0  0  0  0  0
   10.1125   -9.9458    0.0000 O   0  0  0  0  0  0  0  0  0  0  0  0
   10.8270  -10.3583    0.0000 C   0  0  0  0  0  0  0  0  0  0  0  0
   11.5414   -9.9458    0.0000 C   0  0  0  0  0  0  0  0  0  0  0  0
   11.5414   -9.1208    0.0000 C   0  0  0  0  0  0  0  0  0  0  0  0
   12.2559   -8.7083    0.0000 C   0  0  0  0  0  0  0  0  0  0  0  0
   12.2559   -7.8833    0.0000 C   0  0  0  0  0  0  0  0  0  0  0  0
   10.8270   -5.4083    0.0000 C   0  0  0  0  0  0  0  0  0  0  0  0
    9.3980   -6.2333    0.0000 O   0  0  0  0  0  0  0  0  0  0  0  0
    8.6836   -7.4708    0.0000 O   0  0  0  0  0  0  0  0  0  0  0  0
    7.9691   -7.8833    0.0000 C   0  0  0  0  0  0  0  0  0  0  0  0
    9.3958   -7.0542    0.0000 C   0  0  0  0  0  0  0  0  0  0  0  0
    8.6792   -8.2917    0.0000 O   0  0  0  0  0  0  0  0  0  0  0  0
    8.9792   -9.4167    0.0000 C   0  0  0  0  0  0  0  0  0  0  0  0
    9.3970   -9.5332    0.0000 C   0  0  0  0  0  0  0  0  0  0  0  0
    9.3970  -10.3582    0.0000 C   0  0  0  0  0  0  0  0  0  0  0  0
   10.8270  -11.1833    0.0000 O   0  0  0  0  0  0  0  0  0  0  0  0
   12.2500   -9.5292    0.0000 O   0  0  0  0  0  0  0  0  0  0  0  0
   12.2507  -10.3542    0.0000 C   0  0  0  0  0  0  0  0  0  0  0  0
   12.9655  -10.7661    0.0000 N   0  0  0  0  0  0  0  0  0  0  0  0
   11.5365  -10.7672    0.0000 O   0  0  0  0  0  0  0  0  0  0  0  0
   10.9500   -9.3542    0.0000 C   0  0  0  0  0  0  0  0  0  0  0  0
   12.9704   -9.1208    0.0000 C   0  0  0  0  0  0  0  0  0  0  0  0
   12.9704   -7.4708    0.0000 O   0  0  0  0  0  0  0  0  0  0  0  0
   10.8208   -7.0542    0.0000 C   0  0  0  0  0  0  0  0  0  0  0  0
   11.1208   -8.1792    0.0000 O   0  0  0  0  0  0  0  0  0  0  0  0
   10.2959   -8.1691    0.0000 C   0  0  0  0  0  0  0  0  0  0  0  0
   13.6849   -7.8833    0.0000 C   0  0  0  0  0  0  0  0  0  0  0  0
   13.6812   -8.7047    0.0000 O   0  0  0  0  0  0  0  0  0  0  0  0
   14.3916   -9.1171    0.0000 C   0  0  0  0  0  0  0  0  0  0  0  0
   15.1085   -8.7081    0.0000 C   0  0  0  0  0  0  0  0  0  0  0  0
   15.1105   -7.8822    0.0000 C   0  0  0  0  0  0  0  0  0  0  0  0
   14.3955   -7.4652    0.0000 C   0  0  0  0  0  0  0  0  0  0  0  0
   15.8263   -7.4721    0.0000 N   0  0  0  0  0  0  0  0  0  0  0  0
   16.5394   -7.8871    0.0000 C   0  0  0  0  0  0  0  0  0  0  0  0
   15.8291   -6.6471    0.0000 C   0  0  0  0  0  0  0  0  0  0  0  0
   14.3940   -6.6402    0.0000 O   0  0  0  0  0  0  0  0  0  0  0  0
   14.3885   -9.9421    0.0000 C   0  0  0  0  0  0  0  0  0  0  0  0
   13.6792   -7.0542    0.0000 H   0  0  0  0  0  0  0  0  0  0  0  0
   12.9661  -11.5911    0.0000 C   0  0  0  0  0  0  0  0  0  0  0  0
   12.2516  -11.9975    0.0000 C   0  0  0  0  0  0  0  0  0  0  0  0
   12.2503  -12.8189    0.0000 C   0  0  0  0  0  0  0  0  0  0  0  0
   12.9632  -13.2347    0.0000 C   0  0  0  0  0  0  0  0  0  0  0  0
   13.6792  -12.8229    0.0000 C   0  0  0  0  0  0  0  0  0  0  0  0
   13.6822  -11.9953    0.0000 C   0  0  0  0  0  0  0  0  0  0  0  0
 25 26  1  0
  6  7  1  0
 26 27  1  0
 13 14  1  0
 26 28  2  0
 14  5  1  0
 11 29  1  1
  1  4  1  0
 13 30  1  1
  2 15  1  6
 14 31  1  6
  7  8  1  0
  5 32  1  1
  1 16  2  0
  5 33  1  0
 33 34  1  0
  6 17  1  6
 31 35  1  0
 35 36  1  0
  8  9  1  0
 17 18  1  0
  3  5  1  0
  4 19  1  1
  9 10  1  0
 35 40  1  0
 36 37  1  0
 37 38  1  0
 38 39  1  0
 39 40  1  0
  7 20  1  1
 39 41  1  1
  2  3  1  0
 41 42  1  0
  7 21  1  0
 41 43  1  0
 10 11  1  0
 40 44  1  6
  8 22  1  1
 37 45  1  1
  4  6  1  0
 35 46  1  6
 22 23  1  0
 27 47  1  0
 47 48  1  0
 11 12  1  0
 10 24  2  0
  1  2  1  0
 12 25  1  1
 12 13  1  0
 47 52  1  0
 48 49  1  0
 49 50  1  0
 50 51  1  0
 51 52  1  0
M  END

> <chembl_id>
CHEMBL1240624

> <chembl_pref_name>
None

$$$$

     RDKit          2D

 29 31  0  0  0  0  0  0  0  0999 V2000
   -5.7183   -0.6240    0.0000 F   0  0  0  0  0  0  0  0  0  0  0  0
   -5.0039    0.6135    0.0000 F   0  0  0  0  0  0  0  0  0  0  0  0
   -0.7170    4.7385    0.0000 O   0  0  0  0  0  0  0  0  0  0  0  0
   -1.4315    1.8510    0.0000 O   0  0  0  0  0  0  0  0  0  0  0  0
   -4.2894   -0.6240    0.0000 O   0  0  0  0  0  0  0  0  0  0  0  0
   -2.1460    4.7385    0.0000 O   0  0  0  0  0  0  0  0  0  0  0  0
   -2.8604   -1.4490    0.0000 O   0  0  0  0  0  0  0  0  0  0  0  0
   -0.7170    0.6135    0.0000 O   0  0  0  0  0  0  0  0  0  0  0  0
   -0.0026    3.5010    0.0000 C   0  0  0  0  0  0  0  0  0  0  0  0
   -0.0026    4.3260    0.0000 C   0  0  0  0  0  0  0  0  0  0  0  0
   -0.7170    3.0885    0.0000 C   0  0  0  0  0  0  0  0  0  0  0  0
    0.7119    4.7385    0.0000 C   0  0  0  0  0  0  0  0  0  0  0  0
    1.4264    4.3260    0.0000 C   0  0  0  0  0  0  0  0  0  0  0  0
    0.7119    3.0885    0.0000 C   0  0  0  0  0  0  0  0  0  0  0  0
   -1.4315    4.3260    0.0000 C   0  0  0  0  0  0  0  0  0  0  0  0
   -1.4315    3.5010    0.0000 C   0  0  0  0  0  0  0  0  0  0  0  0
   -0.7170    2.2635    0.0000 C   0  0  0  0  0  0  0  0  0  0  0  0
   -2.1460    0.6135    0.0000 C   0  0  0  0  0  0  0  0  0  0  0  0
    1.4264    3.5010    0.0000 C   0  0  0  0  0  0  0  0  0  0  0  0
   -2.8604   -0.6240    0.0000 C   0  0  0  0  0  0  0  0  0  0  0  0
   -1.4315    1.0260    0.0000 C   0  0  0  0  0  0  0  0  0  0  0  0
   -3.5749   -0.2115    0.0000 C   0  0  0  0  0  0  0  0  0  0  0  0
   -2.1460   -0.2115    0.0000 C   0  0  0  0  0  0  0  0  0  0  0  0
   -2.8604    1.0260    0.0000 C   0  0  0  0  0  0  0  0  0  0  0  0
   -3.5749    0.6135    0.0000 C   0  0  0  0  0  0  0  0  0  0  0  0
    0.7119    5.5635    0.0000 C   0  0  0  0  0  0  0  0  0  0  0  0
    2.1409    4.7385    0.0000 C   0  0  0  0  0  0  0  0  0  0  0  0
   -5.0039   -0.2115    0.0000 C   0  0  0  0  0  0  0  0  0  0  0  0
   -2.1460   -1.8615    0.0000 C   0  0  0  0  0  0  0  0  0  0  0  0
  1 28  1  0
  2 28  1  0
  3 10  1  0
  3 15  1  0
  4 17  1  0
  4 21  1  0
  5 22  1  0
  5 28  1  0
  6 15  2  0
  7 20  1  0
  7 29  1  0
  8 21  2  0
  9 10  1  0
  9 11  1  0
  9 14  2  0
 10 12  2  0
 11 16  2  0
 11 17  1  0
 12 13  1  0
 12 26  1  0
 13 19  2  0
 13 27  1  0
 14 19  1  0
 15 16  1  0
 18 21  1  0
 18 23  1  0
 18 24  2  0
 20 22  1  0
 20 23  2  0
 22 25  2  0
 24 25  1  0
M  END

> <chembl_id>
CHEMBL1400614

> <chembl_pref_name>
None

$$$$

     RDKit          2D

 30 33  0  0  0  0  0  0  0  0999 V2000
    2.7798   -2.9159    0.0000 S   0  0  0  0  0  0  0  0  0  0  0  0
   -0.5202   -1.4869    0.0000 O   0  0  0  0  0  0  0  0  0  0  0  0
    1.5423    0.6565    0.0000 N   0  0  0  0  0  0  0  0  0  0  0  0
    2.0944    1.2696    0.0000 N   0  0  0  0  0  0  0  0  0  0  0  0
    2.7618    0.1136    0.0000 N   0  0  0  0  0  0  0  0  0  0  0  0
    2.8480    0.9340    0.0000 N   0  0  0  0  0  0  0  0  0  0  0  0
    1.5423   -2.2014    0.0000 N   0  0  0  0  0  0  0  0  0  0  0  0
    1.5423   -3.6303    0.0000 N   0  0  0  0  0  0  0  0  0  0  0  0
    1.9548   -0.0580    0.0000 C   0  0  0  0  0  0  0  0  0  0  0  0
    0.7173    0.6565    0.0000 C   0  0  0  0  0  0  0  0  0  0  0  0
    1.5423   -0.7724    0.0000 C   0  0  0  0  0  0  0  0  0  0  0  0
    0.3048   -0.0580    0.0000 C   0  0  0  0  0  0  0  0  0  0  0  0
    0.7173   -0.7724    0.0000 C   0  0  0  0  0  0  0  0  0  0  0  0
    0.3048    1.3710    0.0000 C   0  0  0  0  0  0  0  0  0  0  0  0
    1.9548   -1.4869    0.0000 C   0  0  0  0  0  0  0  0  0  0  0  0
   -0.5202   -0.0580    0.0000 C   0  0  0  0  0  0  0  0  0  0  0  0
   -0.9327    0.6565    0.0000 C   0  0  0  0  0  0  0  0  0  0  0  0
   -0.5202    1.3710    0.0000 C   0  0  0  0  0  0  0  0  0  0  0  0
    1.9548   -2.9159    0.0000 C   0  0  0  0  0  0  0  0  0  0  0  0
    0.7173   -2.2014    0.0000 C   0  0  0  0  0  0  0  0  0  0  0  0
   -1.7577    0.6565    0.0000 C   0  0  0  0  0  0  0  0  0  0  0  0
    1.9548   -4.3448    0.0000 C   0  0  0  0  0  0  0  0  0  0  0  0
    0.3048   -1.4869    0.0000 C   0  0  0  0  0  0  0  0  0  0  0  0
    2.7798   -4.3448    0.0000 C   0  0  0  0  0  0  0  0  0  0  0  0
    1.5423   -5.0593    0.0000 C   0  0  0  0  0  0  0  0  0  0  0  0
    2.7798   -5.7737    0.0000 C   0  0  0  0  0  0  0  0  0  0  0  0
    3.1923   -5.0593    0.0000 C   0  0  0  0  0  0  0  0  0  0  0  0
    1.9548   -5.7737    0.0000 C   0  0  0  0  0  0  0  0  0  0  0  0
    3.1923   -6.4882    0.0000 C   0  0  0  0  0  0  0  0  0  0  0  0
   -0.9327   -0.7724    0.0000 C   0  0  0  0  0  0  0  0  0  0  0  0
  1 19  1  0
  2 23  1  0
  2 30  1  0
  3  4  1  0
  3  9  1  0
  3 10  1  0
  4  6  2  0
  5  6  1  0
  5  9  2  0
  7 15  1  0
  7 19  1  0
  7 20  1  0
  8 19  2  3
  8 22  1  0
  9 11  1  0
 10 12  1  0
 10 14  2  0
 11 13  2  0
 11 15  1  0
 12 13  1  0
 12 16  2  0
 14 18  1  0
 16 17  1  0
 17 18  2  0
 17 21  1  0
 20 23  1  0
 22 24  2  0
 22 25  1  0
 24 27  1  0
 25 28  2  0
 26 27  2  0
 26 28  1  0
 26 29  1  0
M  END

> <chembl_id>
CHEMBL1340394

> <chembl_pref_name>
None

$$$$

     RDKit          2D

 19 20  0  0  0  0  0  0  0  0999 V2000
    1.2157    0.1560    0.0000 O   0  0  0  0  0  0  0  0  0  0  0  0
    2.4445   -1.5897    0.0000 N   0  0  0  0  0  0  0  0  0  0  0  0
    1.5193   -2.7322    0.0000 N   0  0  0  0  0  0  0  0  0  0  0  0
    1.1388   -1.3121    0.0000 C   0  0  0  0  0  0  0  0  0  0  0  0
    1.6908   -1.9252    0.0000 C   0  0  0  0  0  0  0  0  0  0  0  0
    1.5513   -0.5977    0.0000 C   0  0  0  0  0  0  0  0  0  0  0  0
    0.3183   -1.3984    0.0000 C   0  0  0  0  0  0  0  0  0  0  0  0
    2.3582   -0.7692    0.0000 C   0  0  0  0  0  0  0  0  0  0  0  0
    3.1589   -2.0022    0.0000 C   0  0  0  0  0  0  0  0  0  0  0  0
   -0.0173   -2.1520    0.0000 C   0  0  0  0  0  0  0  0  0  0  0  0
   -0.1666   -0.7309    0.0000 C   0  0  0  0  0  0  0  0  0  0  0  0
   -0.8378   -2.2383    0.0000 C   0  0  0  0  0  0  0  0  0  0  0  0
   -0.9871   -0.8172    0.0000 C   0  0  0  0  0  0  0  0  0  0  0  0
    3.8734   -1.5897    0.0000 C   0  0  0  0  0  0  0  0  0  0  0  0
   -1.3227   -1.5708    0.0000 C   0  0  0  0  0  0  0  0  0  0  0  0
    4.5879   -2.0022    0.0000 C   0  0  0  0  0  0  0  0  0  0  0  0
    5.3024   -1.5897    0.0000 C   0  0  0  0  0  0  0  0  0  0  0  0
    6.0168   -2.0022    0.0000 C   0  0  0  0  0  0  0  0  0  0  0  0
    6.7313   -1.5897    0.0000 C   0  0  0  0  0  0  0  0  0  0  0  0
  1  6  2  0
  2  5  1  0
  2  8  1  0
  2  9  1  0
  3  5  1  0
  4  5  2  0
  4  6  1  0
  4  7  1  0
  6  8  1  0
  7 10  2  0
  7 11  1  0
  9 14  1  0
 10 12  1  0
 11 13  2  0
 12 15  2  0
 13 15  1  0
 14 16  1  0
 16 17  1  0
 17 18  1  0
 18 19  1  0
M  END

> <chembl_id>
CHEMBL1406994

> <chembl_pref_name>
None

$$$$

     RDKit          2D

 33 35  0  0  0  0  0  0  0  0999 V2000
    0.5111   -2.7281    0.0000 S   0  0  0  0  0  0  0  0  0  0  0  0
    0.1306   -1.3081    0.0000 S   0  0  0  0  0  0  0  0  0  0  0  0
   -1.3214   -3.8231    0.0000 O   0  0  0  0  0  0  0  0  0  0  0  0
   -1.5055   -6.8660    0.0000 O   0  0  0  0  0  0  0  0  0  0  0  0
    0.1355   -7.0385    0.0000 O   0  0  0  0  0  0  0  0  0  0  0  0
   -2.1766   -5.3587    0.0000 O   0  0  0  0  0  0  0  0  0  0  0  0
   -2.9380   -1.2131    0.0000 O   0  0  0  0  0  0  0  0  0  0  0  0
   -5.0814   -3.2756    0.0000 O   0  0  0  0  0  0  0  0  0  0  0  0
   -0.7946   -2.4506    0.0000 N   0  0  0  0  0  0  0  0  0  0  0  0
   -3.6525   -2.4506    0.0000 N   0  0  0  0  0  0  0  0  0  0  0  0
    0.0986   -3.4426    0.0000 C   0  0  0  0  0  0  0  0  0  0  0  0
   -0.7083   -3.2711    0.0000 C   0  0  0  0  0  0  0  0  0  0  0  0
   -0.0409   -2.1150    0.0000 C   0  0  0  0  0  0  0  0  0  0  0  0
   -0.0507   -4.8637    0.0000 C   0  0  0  0  0  0  0  0  0  0  0  0
    0.4342   -4.1963    0.0000 C   0  0  0  0  0  0  0  0  0  0  0  0
   -1.0206   -6.1986    0.0000 C   0  0  0  0  0  0  0  0  0  0  0  0
   -0.2001   -6.2848    0.0000 C   0  0  0  0  0  0  0  0  0  0  0  0
   -1.3561   -5.4449    0.0000 C   0  0  0  0  0  0  0  0  0  0  0  0
    0.2848   -5.6174    0.0000 C   0  0  0  0  0  0  0  0  0  0  0  0
   -0.8712   -4.7775    0.0000 C   0  0  0  0  0  0  0  0  0  0  0  0
   -1.5091   -2.0381    0.0000 C   0  0  0  0  0  0  0  0  0  0  0  0
   -2.2235   -2.4506    0.0000 C   0  0  0  0  0  0  0  0  0  0  0  0
   -2.9380   -2.0381    0.0000 C   0  0  0  0  0  0  0  0  0  0  0  0
   -4.3669   -2.0381    0.0000 C   0  0  0  0  0  0  0  0  0  0  0  0
   -5.0814   -2.4506    0.0000 C   0  0  0  0  0  0  0  0  0  0  0  0
   -4.3669   -1.2131    0.0000 C   0  0  0  0  0  0  0  0  0  0  0  0
   -2.3260   -6.7798    0.0000 C   0  0  0  0  0  0  0  0  0  0  0  0
   -5.7959   -2.0381    0.0000 C   0  0  0  0  0  0  0  0  0  0  0  0
    0.9559   -7.1247    0.0000 C   0  0  0  0  0  0  0  0  0  0  0  0
   -2.5122   -4.6050    0.0000 C   0  0  0  0  0  0  0  0  0  0  0  0
   -5.0814   -0.8006    0.0000 C   0  0  0  0  0  0  0  0  0  0  0  0
   -5.7959   -1.2131    0.0000 C   0  0  0  0  0  0  0  0  0  0  0  0
   -5.7959   -3.6881    0.0000 C   0  0  0  0  0  0  0  0  0  0  0  0
  1 11  1  0
  1 13  1  0
  2 13  2  0
  3 12  2  0
  4 16  1  0
  4 27  1  0
  5 17  1  0
  5 29  1  0
  6 18  1  0
  6 30  1  0
  7 23  2  0
  8 25  1  0
  8 33  1  0
  9 12  1  0
  9 13  1  0
  9 21  1  0
 10 23  1  0
 10 24  1  0
 11 12  1  0
 11 15  2  0
 14 15  1  0
 14 19  2  0
 14 20  1  0
 16 17  2  0
 16 18  1  0
 17 19  1  0
 18 20  2  0
 21 22  1  0
 22 23  1  0
 24 25  1  0
 24 26  2  0
 25 28  2  0
 26 31  1  0
 28 32  1  0
 31 32  2  0
M  END

> <chembl_id>
CHEMBL1447694

> <chembl_pref_name>
None

$$$$

     RDKit          2D

 18 19  0  0  0  0  0  0  0  0999 V2000
    5.1920    0.4554    0.0000 O   0  0  0  0  0  0  0  0  0  0  0  0
    4.4487   -0.8320    0.0000 O   0  0  0  0  0  0  0  0  0  0  0  0
    6.5593   -0.3672    0.0000 N   0  0  0  0  0  0  0  0  0  0  0  0
    3.7714    0.8936    0.0000 C   0  0  0  0  0  0  0  0  0  0  0  0
    3.3589    0.1792    0.0000 C   0  0  0  0  0  0  0  0  0  0  0  0
    5.1303   -0.3672    0.0000 C   0  0  0  0  0  0  0  0  0  0  0  0
    4.5872    1.0166    0.0000 C   0  0  0  0  0  0  0  0  0  0  0  0
    3.6603   -0.5888    0.0000 C   0  0  0  0  0  0  0  0  0  0  0  0
    3.3589    1.6081    0.0000 C   0  0  0  0  0  0  0  0  0  0  0  0
    2.5339    0.1792    0.0000 C   0  0  0  0  0  0  0  0  0  0  0  0
    2.5339    1.6081    0.0000 C   0  0  0  0  0  0  0  0  0  0  0  0
    2.1214    0.8936    0.0000 C   0  0  0  0  0  0  0  0  0  0  0  0
    5.8448   -0.7797    0.0000 C   0  0  0  0  0  0  0  0  0  0  0  0
    7.2737   -0.7797    0.0000 C   0  0  0  0  0  0  0  0  0  0  0  0
    7.9882   -0.3672    0.0000 C   0  0  0  0  0  0  0  0  0  0  0  0
    8.7027   -0.7797    0.0000 C   0  0  0  0  0  0  0  0  0  0  0  0
    9.4172   -0.3672    0.0000 C   0  0  0  0  0  0  0  0  0  0  0  0
    8.7027   -1.6047    0.0000 C   0  0  0  0  0  0  0  0  0  0  0  0
  1  6  1  0
  1  7  1  0
  2  6  1  0
  2  8  1  0
  3 13  1  0
  3 14  1  0
  4  5  1  0
  4  7  1  0
  4  9  2  0
  5  8  1  0
  5 10  2  0
  6 13  1  0
  9 11  1  0
 10 12  1  0
 11 12  2  0
 14 15  1  0
 15 16  1  0
 16 17  1  0
 16 18  1  0
M  END

> <chembl_id>
CHEMBL1617168

> <chembl_pref_name>
None

$$$$

     RDKit          2D

 19 20  0  0  0  0  0  0  0  0999 V2000
   -2.9331   -1.6934    0.0000 Br  0  0  0  0  0  0  0  0  0  0  0  0
   -1.5041    0.7816    0.0000 O   0  0  0  0  0  0  0  0  0  0  0  0
    2.0682    0.3691    0.0000 N   0  0  0  0  0  0  0  0  0  0  0  0
   -2.2186    0.3691    0.0000 C   0  0  0  0  0  0  0  0  0  0  0  0
   -2.9331   -0.8684    0.0000 C   0  0  0  0  0  0  0  0  0  0  0  0
   -2.2186   -0.4559    0.0000 C   0  0  0  0  0  0  0  0  0  0  0  0
   -2.9331    0.7816    0.0000 C   0  0  0  0  0  0  0  0  0  0  0  0
   -3.6476   -0.4559    0.0000 C   0  0  0  0  0  0  0  0  0  0  0  0
   -3.6476    0.3691    0.0000 C   0  0  0  0  0  0  0  0  0  0  0  0
    3.4971   -0.4559    0.0000 C   0  0  0  0  0  0  0  0  0  0  0  0
    2.7827    0.7816    0.0000 C   0  0  0  0  0  0  0  0  0  0  0  0
    2.0682   -0.4559    0.0000 C   0  0  0  0  0  0  0  0  0  0  0  0
    1.3537    0.7816    0.0000 C   0  0  0  0  0  0  0  0  0  0  0  0
    3.4971    0.3691    0.0000 C   0  0  0  0  0  0  0  0  0  0  0  0
    2.7827   -0.8684    0.0000 C   0  0  0  0  0  0  0  0  0  0  0  0
   -0.7897    0.3691    0.0000 C   0  0  0  0  0  0  0  0  0  0  0  0
    0.6393    0.3691    0.0000 C   0  0  0  0  0  0  0  0  0  0  0  0
   -0.0752    0.7816    0.0000 C   0  0  0  0  0  0  0  0  0  0  0  0
    4.2116   -0.8684    0.0000 C   0  0  0  0  0  0  0  0  0  0  0  0
  1  5  1  0
  2  4  1  0
  2 16  1  0
  3 11  1  0
  3 12  1  0
  3 13  1  0
  4  6  1  0
  4  7  2  0
  5  6  2  0
  5  8  1  0
  7  9  1  0
  8  9  2  0
 10 14  1  0
 10 15  1  0
 10 19  1  0
 11 14  1  0
 12 15  1  0
 13 17  1  0
 16 18  1  0
 17 18  1  0
M  END

> <chembl_id>
CHEMBL1621790

> <chembl_pref_name>
None

$$$$

     RDKit          2D

 25 27  0  0  0  0  0  0  0  0999 V2000
   -1.2736   -2.7678    0.0000 S   0  0  0  0  0  0  0  0  0  0  0  0
   -0.5592   -0.7053    0.0000 O   0  0  0  0  0  0  0  0  0  0  0  0
    2.2987   -3.1803    0.0000 O   0  0  0  0  0  0  0  0  0  0  0  0
    1.5842   -1.9428    0.0000 O   0  0  0  0  0  0  0  0  0  0  0  0
   -2.7418   -2.8448    0.0000 N   0  0  0  0  0  0  0  0  0  0  0  0
   -2.0744   -4.0008    0.0000 N   0  0  0  0  0  0  0  0  0  0  0  0
   -2.8813   -4.1723    0.0000 N   0  0  0  0  0  0  0  0  0  0  0  0
    0.1553   -1.9428    0.0000 N   0  0  0  0  0  0  0  0  0  0  0  0
    1.5842   -2.7678    0.0000 N   0  0  0  0  0  0  0  0  0  0  0  0
   -2.4718   -0.6788    0.0000 N   0  0  0  0  0  0  0  0  0  0  0  0
   -1.9881   -3.1803    0.0000 C   0  0  0  0  0  0  0  0  0  0  0  0
   -2.9133   -2.0378    0.0000 C   0  0  0  0  0  0  0  0  0  0  0  0
   -3.2938   -3.4579    0.0000 C   0  0  0  0  0  0  0  0  0  0  0  0
    0.1553   -2.7678    0.0000 C   0  0  0  0  0  0  0  0  0  0  0  0
    0.8698   -3.1803    0.0000 C   0  0  0  0  0  0  0  0  0  0  0  0
   -0.5592   -1.5303    0.0000 C   0  0  0  0  0  0  0  0  0  0  0  0
   -2.3002   -1.4858    0.0000 C   0  0  0  0  0  0  0  0  0  0  0  0
   -3.6979   -1.7828    0.0000 C   0  0  0  0  0  0  0  0  0  0  0  0
   -1.2736   -1.9428    0.0000 C   0  0  0  0  0  0  0  0  0  0  0  0
   -0.5592   -3.1803    0.0000 C   0  0  0  0  0  0  0  0  0  0  0  0
    0.8698   -4.0053    0.0000 C   0  0  0  0  0  0  0  0  0  0  0  0
   -3.8695   -0.9759    0.0000 C   0  0  0  0  0  0  0  0  0  0  0  0
   -0.5592   -4.0053    0.0000 C   0  0  0  0  0  0  0  0  0  0  0  0
    0.1553   -4.4178    0.0000 C   0  0  0  0  0  0  0  0  0  0  0  0
   -3.2564   -0.4238    0.0000 C   0  0  0  0  0  0  0  0  0  0  0  0
  1 11  1  0
  1 19  1  0
  2 16  2  0
  3  9  1  0
  4  9  2  0
  5 11  1  0
  5 12  1  0
  5 13  1  0
  6  7  1  0
  6 11  2  0
  7 13  2  0
  8 14  1  0
  8 16  1  0
  9 15  1  0
 10 17  2  0
 10 25  1  0
 12 17  1  0
 12 18  2  0
 14 15  1  0
 14 20  2  0
 15 21  2  0
 16 19  1  0
 18 22  1  0
 20 23  1  0
 21 24  1  0
 22 25  2  0
 23 24  2  0
M  CHG  2   3  -1   9   1
M  END

> <chembl_id>
CHEMBL1401694

> <chembl_pref_name>
None

$$$$

     RDKit          2D

 51 56  0  0  0  0  0  0  0  0999 V2000
    5.4733   -2.0258    0.0000 C   0  0  0  0  0  0  0  0  0  0  0  0
    6.1389   -1.5383    0.0000 C   0  0  0  0  0  0  0  0  0  0  0  0
    5.8850   -0.7521    0.0000 C   0  0  0  0  0  0  0  0  0  0  0  0
    5.0581   -0.7572    0.0000 O   0  0  0  0  0  0  0  0  0  0  0  0
    4.8070   -1.5414    0.0000 C   0  0  0  0  0  0  0  0  0  0  0  0
    6.3697   -0.0838    0.0000 N   0  0  0  0  0  0  0  0  0  0  0  0
    7.1911    0.0025    0.0000 C   0  0  0  0  0  0  0  0  0  0  0  0
    7.5255    0.7483    0.0000 N   0  0  0  0  0  0  0  0  0  0  0  0
    7.0439    1.4186    0.0000 C   0  0  0  0  0  0  0  0  0  0  0  0
    6.2239    1.3381    0.0000 C   0  0  0  0  0  0  0  0  0  0  0  0
    5.8846    0.5815    0.0000 C   0  0  0  0  0  0  0  0  0  0  0  0
    7.6744   -0.6663    0.0000 O   0  0  0  0  0  0  0  0  0  0  0  0
    7.3816    2.1730    0.0000 O   0  0  0  0  0  0  0  0  0  0  0  0
    4.0235   -1.8012    0.0000 C   0  0  0  0  0  0  0  0  0  0  0  0
    6.9261   -1.7908    0.0000 O   0  0  0  0  0  0  0  0  0  0  0  0
    5.4778   -2.8501    0.0000 O   0  0  0  0  0  0  0  0  0  0  0  0
   -1.0125   -6.1416    0.0000 C   0  0  0  0  0  0  0  0  0  0  0  0
    1.8948   -1.3728    0.0000 C   0  0  0  0  0  0  0  0  0  0  0  0
    1.1775   -1.7794    0.0000 N   0  0  0  0  0  0  0  0  0  0  0  0
    0.4647   -1.3653    0.0000 C   0  0  0  0  0  0  0  0  0  0  0  0
   -0.3208   -1.6181    0.0000 C   0  0  0  0  0  0  0  0  0  0  0  0
    0.4690   -0.5402    0.0000 O   0  0  0  0  0  0  0  0  0  0  0  0
   -0.9903   -1.1302    0.0000 N   0  0  0  0  0  0  0  0  0  0  0  0
   -1.6590   -1.6120    0.0000 C   0  0  0  0  0  0  0  0  0  0  0  0
   -0.5770   -2.3979    0.0000 C   0  0  0  0  0  0  0  0  0  0  0  0
   -1.4028   -2.3941    0.0000 C   0  0  0  0  0  0  0  0  0  0  0  0
   -1.6646   -3.1784    0.0000 C   0  0  0  0  0  0  0  0  0  0  0  0
   -0.9979   -3.6687    0.0000 N   0  0  0  0  0  0  0  0  0  0  0  0
   -0.3269   -3.1847    0.0000 C   0  0  0  0  0  0  0  0  0  0  0  0
    0.4567   -3.4420    0.0000 O   0  0  0  0  0  0  0  0  0  0  0  0
   -2.4507   -3.4283    0.0000 O   0  0  0  0  0  0  0  0  0  0  0  0
   -1.0001   -4.4893    0.0000 C   0  0  0  0  0  0  0  0  0  0  0  0
   -1.7187   -4.8959    0.0000 C   0  0  0  0  0  0  0  0  0  0  0  0
   -1.7229   -5.7202    0.0000 C   0  0  0  0  0  0  0  0  0  0  0  0
   -0.2899   -5.7233    0.0000 C   0  0  0  0  0  0  0  0  0  0  0  0
   -0.2892   -4.9003    0.0000 C   0  0  0  0  0  0  0  0  0  0  0  0
   -2.4440   -1.3579    0.0000 C   0  0  0  0  0  0  0  0  0  0  0  0
    0.2156   -2.6078    0.0000 H   0  0  0  0  0  0  0  0  0  0  0  0
   -2.2306   -2.3881    0.0000 H   0  0  0  0  0  0  0  0  0  0  0  0
   -2.4812   -0.5344    0.0000 C   0  0  0  0  0  0  0  0  0  0  0  0
   -3.2158   -0.1572    0.0000 C   0  0  0  0  0  0  0  0  0  0  0  0
   -3.9055   -0.6082    0.0000 C   0  0  0  0  0  0  0  0  0  0  0  0
   -3.8602   -1.4362    0.0000 C   0  0  0  0  0  0  0  0  0  0  0  0
   -3.1252   -1.8055    0.0000 C   0  0  0  0  0  0  0  0  0  0  0  0
   -1.7947   -0.0916    0.0000 O   0  0  0  0  0  0  0  0  0  0  0  0
   -1.8334    0.7283    0.0000 C   0  0  0  0  0  0  0  0  0  0  0  0
    1.1733   -2.6003    0.0000 C   0  0  0  0  0  0  0  0  0  0  0  0
   -0.9880   -0.3093    0.0000 C   0  0  0  0  0  0  0  0  0  0  0  0
    2.6025   -1.7887    0.0000 C   0  0  0  0  0  0  0  0  0  0  0  0
    3.3166   -1.3838    0.0000 N   0  0  0  0  0  0  0  0  0  0  0  0
    2.5962   -2.6096    0.0000 O   0  0  0  0  0  0  0  0  0  0  0  0
  1  2  1  0
  7 12  2  0
  3  6  1  1
  9 13  2  0
  6  7  1  0
 26 27  1  0
 27 28  1  0
 28 29  1  0
 25 29  1  0
  5 14  1  1
 29 30  2  0
 27 31  2  0
  2 15  1  6
  2  3  1  0
 32 33  2  0
  1 16  1  6
 33 34  1  0
 34 17  2  0
  3  4  1  0
 17 35  1  0
  4  5  1  0
 35 36  2  0
 36 32  1  0
 28 32  1  0
  5  1  1  0
 24 37  1  1
 18 19  1  0
 25 38  1  6
  6 11  1  0
 26 39  1  6
 19 20  1  0
 37 40  2  0
  7  8  1  0
 40 41  1  0
 21 20  1  1
 41 42  2  0
  8  9  1  0
 42 43  1  0
 20 22  2  0
 43 44  2  0
 44 37  1  0
 21 23  1  0
  9 10  1  0
 45 46  1  0
 40 45  1  0
 10 11  2  0
 19 47  1  0
 23 24  1  0
 23 48  1  0
 24 26  1  0
 18 49  1  0
 25 21  1  0
 49 50  1  0
 25 26  1  0
 49 51  2  0
 50 14  1  0
M  END

> <chembl_id>
CHEMBL1090664

> <chembl_pref_name>
None

$$$$

     RDKit          2D

 28 30  0  0  0  0  0  0  0  0999 V2000
   -2.1852    0.1858    0.0000 O   0  0  0  0  0  0  0  0  0  0  0  0
    1.3871    3.8983    0.0000 O   0  0  0  0  0  0  0  0  0  0  0  0
   -2.8997    1.4233    0.0000 O   0  0  0  0  0  0  0  0  0  0  0  0
   -0.0418    3.8983    0.0000 O   0  0  0  0  0  0  0  0  0  0  0  0
   -3.6142   -2.2892    0.0000 O   0  0  0  0  0  0  0  0  0  0  0  0
   -0.7563    2.6608    0.0000 N   0  0  0  0  0  0  0  0  0  0  0  0
   -0.7563    0.1858    0.0000 N   0  0  0  0  0  0  0  0  0  0  0  0
   -2.1852   -1.4642    0.0000 N   0  0  0  0  0  0  0  0  0  0  0  0
   -0.0418    1.4233    0.0000 C   0  0  0  0  0  0  0  0  0  0  0  0
   -0.0418    2.2483    0.0000 C   0  0  0  0  0  0  0  0  0  0  0  0
   -0.7563    1.0108    0.0000 C   0  0  0  0  0  0  0  0  0  0  0  0
   -1.4708    1.4233    0.0000 C   0  0  0  0  0  0  0  0  0  0  0  0
    0.6726    2.6608    0.0000 C   0  0  0  0  0  0  0  0  0  0  0  0
   -1.4708    2.2483    0.0000 C   0  0  0  0  0  0  0  0  0  0  0  0
    0.6726    1.0108    0.0000 C   0  0  0  0  0  0  0  0  0  0  0  0
   -2.1852    1.0108    0.0000 C   0  0  0  0  0  0  0  0  0  0  0  0
    0.6726    3.4858    0.0000 C   0  0  0  0  0  0  0  0  0  0  0  0
    1.3871    2.2483    0.0000 C   0  0  0  0  0  0  0  0  0  0  0  0
    1.3871    1.4233    0.0000 C   0  0  0  0  0  0  0  0  0  0  0  0
   -1.4708   -0.2267    0.0000 C   0  0  0  0  0  0  0  0  0  0  0  0
   -1.4708   -1.0517    0.0000 C   0  0  0  0  0  0  0  0  0  0  0  0
   -2.8997   -0.2267    0.0000 C   0  0  0  0  0  0  0  0  0  0  0  0
    1.3871    4.7233    0.0000 C   0  0  0  0  0  0  0  0  0  0  0  0
   -2.8997   -1.0517    0.0000 C   0  0  0  0  0  0  0  0  0  0  0  0
   -2.1852   -2.2892    0.0000 C   0  0  0  0  0  0  0  0  0  0  0  0
   -3.6142   -1.4642    0.0000 C   0  0  0  0  0  0  0  0  0  0  0  0
   -2.8997   -2.7017    0.0000 C   0  0  0  0  0  0  0  0  0  0  0  0
   -3.6142    0.1858    0.0000 C   0  0  0  0  0  0  0  0  0  0  0  0
  1 16  1  0
  1 22  1  0
  2 17  1  0
  2 23  1  0
  3 16  2  0
  4 17  2  0
  5 26  1  0
  5 27  1  0
  6 10  2  0
  6 14  1  0
  7 11  1  0
  7 20  1  0
  8 21  1  0
  8 24  1  0
  8 25  1  0
  9 10  1  0
  9 11  2  0
  9 15  1  0
 10 13  1  0
 11 12  1  0
 12 14  2  0
 12 16  1  0
 13 17  1  0
 13 18  2  0
 15 19  2  0
 18 19  1  0
 20 21  1  0
 22 28  1  0
 24 26  1  0
 25 27  1  0
M  END

> <chembl_id>
CHEMBL1400697

> <chembl_pref_name>
None

$$$$

     RDKit          2D

 19 21  0  0  0  0  0  0  0  0999 V2000
    1.7406   -3.9305    0.0000 S   0  0  0  0  0  0  0  0  0  0  0  0
    0.9399   -2.6975    0.0000 N   0  0  0  0  0  0  0  0  0  0  0  0
    1.9319   -1.8043    0.0000 N   0  0  0  0  0  0  0  0  0  0  0  0
    2.2675   -2.5580    0.0000 N   0  0  0  0  0  0  0  0  0  0  0  0
    0.8144    0.8421    0.0000 N   0  0  0  0  0  0  0  0  0  0  0  0
    1.1115   -1.8905    0.0000 C   0  0  0  0  0  0  0  0  0  0  0  0
    0.8144   -0.4928    0.0000 C   0  0  0  0  0  0  0  0  0  0  0  0
    1.5990   -0.2379    0.0000 C   0  0  0  0  0  0  0  0  0  0  0  0
    0.5594   -1.2774    0.0000 C   0  0  0  0  0  0  0  0  0  0  0  0
    1.5990    0.5871    0.0000 C   0  0  0  0  0  0  0  0  0  0  0  0
    1.6544   -3.1100    0.0000 C   0  0  0  0  0  0  0  0  0  0  0  0
    0.3294    0.1746    0.0000 C   0  0  0  0  0  0  0  0  0  0  0  0
    2.3135   -0.6504    0.0000 C   0  0  0  0  0  0  0  0  0  0  0  0
    0.1862   -3.0330    0.0000 C   0  0  0  0  0  0  0  0  0  0  0  0
    2.3135    0.9996    0.0000 C   0  0  0  0  0  0  0  0  0  0  0  0
    3.0279   -0.2379    0.0000 C   0  0  0  0  0  0  0  0  0  0  0  0
    3.0279    0.5871    0.0000 C   0  0  0  0  0  0  0  0  0  0  0  0
   -0.4812   -2.5481    0.0000 C   0  0  0  0  0  0  0  0  0  0  0  0
   -1.2349   -2.8837    0.0000 C   0  0  0  0  0  0  0  0  0  0  0  0
  1 11  1  0
  2  6  1  0
  2 11  1  0
  2 14  1  0
  3  4  1  0
  3  6  2  0
  4 11  2  0
  5 10  1  0
  5 12  1  0
  6  9  1  0
  7  8  1  0
  7  9  1  0
  7 12  2  0
  8 10  1  0
  8 13  2  0
 10 15  2  0
 13 16  1  0
 14 18  1  0
 15 17  1  0
 16 17  2  0
 18 19  2  0
M  END

> <chembl_id>
CHEMBL1540604

> <chembl_pref_name>
None

$$$$

     RDKit          2D

 32 34  0  0  0  0  0  0  0  0999 V2000
   -1.9887    2.3913    0.0000 O   0  0  0  0  0  0  0  0  0  0  0  0
   -2.8137    0.9624    0.0000 O   0  0  0  0  0  0  0  0  0  0  0  0
   -0.7512   -1.1810    0.0000 O   0  0  0  0  0  0  0  0  0  0  0  0
   -2.8137    3.8203    0.0000 O   0  0  0  0  0  0  0  0  0  0  0  0
   -5.7012    3.1058    0.0000 O   0  0  0  0  0  0  0  0  0  0  0  0
    0.4863   -0.4665    0.0000 N   0  0  0  0  0  0  0  0  0  0  0  0
   -4.0512    3.1058    0.0000 N   0  0  0  0  0  0  0  0  0  0  0  0
    2.1363   -0.4665    0.0000 N   0  0  0  0  0  0  0  0  0  0  0  0
   -0.7512    0.2479    0.0000 C   0  0  0  0  0  0  0  0  0  0  0  0
   -1.5762    1.6769    0.0000 C   0  0  0  0  0  0  0  0  0  0  0  0
   -1.9887    0.9624    0.0000 C   0  0  0  0  0  0  0  0  0  0  0  0
   -1.5762    0.2479    0.0000 C   0  0  0  0  0  0  0  0  0  0  0  0
   -0.3387   -0.4665    0.0000 C   0  0  0  0  0  0  0  0  0  0  0  0
   -0.7512    1.6769    0.0000 C   0  0  0  0  0  0  0  0  0  0  0  0
   -0.3387    0.9624    0.0000 C   0  0  0  0  0  0  0  0  0  0  0  0
    1.7238   -1.1810    0.0000 C   0  0  0  0  0  0  0  0  0  0  0  0
   -3.2262    3.1058    0.0000 C   0  0  0  0  0  0  0  0  0  0  0  0
    2.1363   -1.8955    0.0000 C   0  0  0  0  0  0  0  0  0  0  0  0
   -2.8137    2.3913    0.0000 C   0  0  0  0  0  0  0  0  0  0  0  0
    0.8988   -1.1810    0.0000 C   0  0  0  0  0  0  0  0  0  0  0  0
    2.9613   -1.8955    0.0000 C   0  0  0  0  0  0  0  0  0  0  0  0
    1.7238   -2.6099    0.0000 C   0  0  0  0  0  0  0  0  0  0  0  0
   -4.4637    3.8203    0.0000 C   0  0  0  0  0  0  0  0  0  0  0  0
   -4.4637    2.3913    0.0000 C   0  0  0  0  0  0  0  0  0  0  0  0
   -5.2887    3.8203    0.0000 C   0  0  0  0  0  0  0  0  0  0  0  0
   -5.2887    2.3913    0.0000 C   0  0  0  0  0  0  0  0  0  0  0  0
   -3.2262    0.2479    0.0000 C   0  0  0  0  0  0  0  0  0  0  0  0
    3.3738   -2.6099    0.0000 C   0  0  0  0  0  0  0  0  0  0  0  0
    2.1363   -3.3244    0.0000 C   0  0  0  0  0  0  0  0  0  0  0  0
    2.9613   -3.3244    0.0000 C   0  0  0  0  0  0  0  0  0  0  0  0
    1.7238    0.2479    0.0000 C   0  0  0  0  0  0  0  0  0  0  0  0
    2.9613   -0.4665    0.0000 C   0  0  0  0  0  0  0  0  0  0  0  0
  1 10  1  0
  1 19  1  0
  2 11  1  0
  2 27  1  0
  3 13  2  0
  4 17  2  0
  5 25  1  0
  5 26  1  0
  6 13  1  0
  6 20  1  0
  7 17  1  0
  7 23  1  0
  7 24  1  0
  8 16  1  0
  8 31  1  0
  8 32  1  0
  9 12  1  0
  9 13  1  0
  9 15  2  0
 10 11  1  0
 10 14  2  0
 11 12  2  0
 14 15  1  0
 16 18  1  0
 16 20  1  0
 17 19  1  0
 18 21  2  0
 18 22  1  0
 21 28  1  0
 22 29  2  0
 23 25  1  0
 24 26  1  0
 28 30  2  0
 29 30  1  0
M  END

> <chembl_id>
CHEMBL1360694

> <chembl_pref_name>
None

$$$$

     RDKit          2D

 17 17  0  0  0  0  0  0  0  0999 V2000
    3.5504   -2.7328    0.0000 O   0  0  0  0  0  0  0  0  0  0  0  0
    4.9793   -2.7328    0.0000 O   0  0  0  0  0  0  0  0  0  0  0  0
    4.2648    0.1547    0.0000 N   0  0  0  0  0  0  0  0  0  0  0  0
    2.8359    2.6297    0.0000 N   0  0  0  0  0  0  0  0  0  0  0  0
    4.2648   -1.4953    0.0000 C   0  0  0  0  0  0  0  0  0  0  0  0
    4.9793   -0.2578    0.0000 C   0  0  0  0  0  0  0  0  0  0  0  0
    3.5504   -0.2578    0.0000 C   0  0  0  0  0  0  0  0  0  0  0  0
    4.2648    0.9797    0.0000 C   0  0  0  0  0  0  0  0  0  0  0  0
    4.9793   -1.0828    0.0000 C   0  0  0  0  0  0  0  0  0  0  0  0
    3.5504   -1.0828    0.0000 C   0  0  0  0  0  0  0  0  0  0  0  0
    3.5504    1.3922    0.0000 C   0  0  0  0  0  0  0  0  0  0  0  0
    4.2648   -2.3203    0.0000 C   0  0  0  0  0  0  0  0  0  0  0  0
    3.5504    2.2172    0.0000 C   0  0  0  0  0  0  0  0  0  0  0  0
    2.8359    0.9797    0.0000 C   0  0  0  0  0  0  0  0  0  0  0  0
    2.1214    1.3922    0.0000 C   0  0  0  0  0  0  0  0  0  0  0  0
    2.1214    2.2172    0.0000 C   0  0  0  0  0  0  0  0  0  0  0  0
    0.0000    0.0000    0.0000 Cl  0  0  0  0  0  0  0  0  0  0  0  0
  1 12  2  0
  2 12  1  0
  3  6  1  0
  3  7  1  0
  3  8  1  0
  4 13  2  0
  4 16  1  0
  5  9  1  0
  5 10  1  0
  5 12  1  0
  6  9  1  0
  7 10  1  0
  8 11  1  0
 11 13  1  0
 11 14  2  0
 14 15  1  0
 15 16  2  0
M  END

> <chembl_id>
CHEMBL1712256

> <chembl_pref_name>
None

$$$$

     RDKit          2D

 23 25  0  0  0  0  0  0  0  0999 V2000
   -2.4222  -15.9559    0.0000 C   0  0  0  0  0  0  0  0  0  0  0  0
   -2.4235  -16.7821    0.0000 C   0  0  0  0  0  0  0  0  0  0  0  0
   -1.7070  -17.1944    0.0000 C   0  0  0  0  0  0  0  0  0  0  0  0
   -1.7090  -15.5438    0.0000 C   0  0  0  0  0  0  0  0  0  0  0  0
   -0.9966  -15.9519    0.0000 C   0  0  0  0  0  0  0  0  0  0  0  0
   -0.9964  -16.7821    0.0000 C   0  0  0  0  0  0  0  0  0  0  0  0
   -0.2060  -17.0365    0.0000 N   0  0  0  0  0  0  0  0  0  0  0  0
    0.2799  -16.3666    0.0000 N   0  0  0  0  0  0  0  0  0  0  0  0
   -0.2066  -15.6971    0.0000 C   0  0  0  0  0  0  0  0  0  0  0  0
    0.2036  -14.9813    0.0000 N   0  0  0  0  0  0  0  0  0  0  0  0
    1.0273  -14.9799    0.0000 C   0  0  0  0  0  0  0  0  0  0  0  0
    1.4380  -14.2678    0.0000 O   0  0  0  0  0  0  0  0  0  0  0  0
    1.4403  -15.6953    0.0000 C   0  0  0  0  0  0  0  0  0  0  0  0
    1.0296  -16.4073    0.0000 C   0  0  0  0  0  0  0  0  0  0  0  0
   -3.1353  -17.1933    0.0000 Cl  0  0  0  0  0  0  0  0  0  0  0  0
    1.4426  -17.1227    0.0000 C   0  0  0  0  0  0  0  0  0  0  0  0
   -3.1314  -15.5445    0.0000 C   0  0  0  0  0  0  0  0  0  0  0  0
   -3.1302  -14.7196    0.0000 C   0  0  0  0  0  0  0  0  0  0  0  0
   -3.8453  -14.3080    0.0000 C   0  0  0  0  0  0  0  0  0  0  0  0
   -4.5577  -14.7201    0.0000 C   0  0  0  0  0  0  0  0  0  0  0  0
   -4.5546  -15.5484    0.0000 C   0  0  0  0  0  0  0  0  0  0  0  0
   -3.8434  -15.9559    0.0000 C   0  0  0  0  0  0  0  0  0  0  0  0
   -5.2744  -14.3095    0.0000 C   0  0  0  0  0  0  0  0  0  0  0  0
 10 11  1  0
 11 12  2  0
  2  3  1  0
 11 13  1  0
  3  6  2  0
 13 14  1  0
  1  2  2  0
  2 15  1  0
  5  4  2  0
 14 16  1  0
  6  7  1  0
  7  8  1  0
 17 18  2  0
  8  9  2  0
 18 19  1  0
  9  5  1  0
 19 20  2  0
  4  1  1  0
 20 21  1  0
  9 10  1  0
 21 22  2  0
 22 17  1  0
  1 17  1  0
  5  6  1  0
 20 23  1  0
M  END

> <chembl_id>
CHEMBL1097694

> <chembl_pref_name>
None

$$$$

     RDKit          2D

 18 19  0  0  0  0  0  0  0  0999 V2000
    0.8061   -0.4736    0.0000 S   0  0  0  0  0  0  0  0  0  0  0  0
   -3.5199   -0.5505    0.0000 S   0  0  0  0  0  0  0  0  0  0  0  0
   -1.3765    0.6870    0.0000 O   0  0  0  0  0  0  0  0  0  0  0  0
   -0.6620   -0.5505    0.0000 N   0  0  0  0  0  0  0  0  0  0  0  0
    0.1387    0.6825    0.0000 N   0  0  0  0  0  0  0  0  0  0  0  0
    0.0525   -0.1380    0.0000 C   0  0  0  0  0  0  0  0  0  0  0  0
   -1.3765   -0.1380    0.0000 C   0  0  0  0  0  0  0  0  0  0  0  0
   -4.2344   -0.1380    0.0000 C   0  0  0  0  0  0  0  0  0  0  0  0
    1.3582    0.1395    0.0000 C   0  0  0  0  0  0  0  0  0  0  0  0
    0.9457    0.8540    0.0000 C   0  0  0  0  0  0  0  0  0  0  0  0
   -2.0909   -0.5505    0.0000 C   0  0  0  0  0  0  0  0  0  0  0  0
   -4.9488   -0.5505    0.0000 C   0  0  0  0  0  0  0  0  0  0  0  0
   -4.2344    0.6870    0.0000 C   0  0  0  0  0  0  0  0  0  0  0  0
   -5.6633    0.6870    0.0000 C   0  0  0  0  0  0  0  0  0  0  0  0
   -2.8054   -0.1380    0.0000 C   0  0  0  0  0  0  0  0  0  0  0  0
   -5.6633   -0.1380    0.0000 C   0  0  0  0  0  0  0  0  0  0  0  0
   -4.9488    1.0995    0.0000 C   0  0  0  0  0  0  0  0  0  0  0  0
   -6.3778    1.0995    0.0000 C   0  0  0  0  0  0  0  0  0  0  0  0
  1  6  1  0
  1  9  1  0
  2  8  1  0
  2 15  1  0
  3  7  2  0
  4  6  1  0
  4  7  1  0
  5  6  2  0
  5 10  1  0
  7 11  1  0
  8 12  2  0
  8 13  1  0
  9 10  2  0
 11 15  1  0
 12 16  1  0
 13 17  2  0
 14 16  2  0
 14 17  1  0
 14 18  1  0
M  END

> <chembl_id>
CHEMBL1400494

> <chembl_pref_name>
None

$$$$

     RDKit          2D

 19 20  0  0  0  0  0  0  0  0999 V2000
   -0.0208   -1.7417    0.0000 N   0  0  0  0  0  0  0  0  0  0  0  0
    0.5542   -0.8042    0.0000 C   0  0  0  0  0  0  0  0  0  0  0  0
    0.5542    1.0708    0.0000 N   0  0  0  0  0  0  0  0  0  0  0  0
    1.0917    0.1000    0.0000 C   0  0  0  0  0  0  0  0  0  0  0  0
    2.1792    0.1000    0.0000 C   0  0  0  0  0  0  0  0  0  0  0  0
   -0.5250    1.0708    0.0000 C   0  0  0  0  0  0  0  0  0  0  0  0
   -1.1000    0.0875    0.0000 C   0  0  0  0  0  0  0  0  0  0  0  0
   -2.3833    0.0875    0.0000 C   0  0  0  0  0  0  0  0  0  0  0  0
    2.7167    1.0458    0.0000 C   0  0  0  0  0  0  0  0  0  0  0  0
    2.7167   -0.8292    0.0000 C   0  0  0  0  0  0  0  0  0  0  0  0
   -1.0708    2.0208    0.0000 C   0  0  0  0  0  0  0  0  0  0  0  0
   -2.8833    1.0208    0.0000 C   0  0  0  0  0  0  0  0  0  0  0  0
   -2.9208   -0.7917    0.0000 C   0  0  0  0  0  0  0  0  0  0  0  0
    3.8000   -0.8292    0.0000 C   0  0  0  0  0  0  0  0  0  0  0  0
    3.8000    1.0458    0.0000 C   0  0  0  0  0  0  0  0  0  0  0  0
   -3.8083    1.0208    0.0000 C   0  0  0  0  0  0  0  0  0  0  0  0
   -3.8333   -0.7917    0.0000 C   0  0  0  0  0  0  0  0  0  0  0  0
    4.3417    0.1000    0.0000 C   0  0  0  0  0  0  0  0  0  0  0  0
   -4.3458    0.1208    0.0000 C   0  0  0  0  0  0  0  0  0  0  0  0
  2  1  3  0
  3  4  1  0
  4  2  1  0
  5  4  1  0
  6  3  1  0
  7  6  1  0
  8  7  1  0
  9  5  2  0
 10  5  1  0
 11  6  1  0
 12  8  2  0
 13  8  1  0
 14 10  2  0
 15  9  1  0
 16 12  1  0
 17 13  2  0
 18 14  1  0
 19 17  1  0
 15 18  2  0
 16 19  2  0
M  END

> <chembl_id>
CHEMBL2104064

> <chembl_pref_name>
AMFETAMINIL

$$$$

     RDKit          2D

 18 20  0  0  0  0  0  0  0  0999 V2000
    1.0537    0.5868    0.0000 N   0  0  0  0  0  0  0  0  0  0  0  0
    0.5688   -0.0807    0.0000 C   0  0  0  0  0  0  0  0  0  0  0  0
    1.0537   -0.7481    0.0000 N   0  0  0  0  0  0  0  0  0  0  0  0
    1.8384    0.3318    0.0000 C   0  0  0  0  0  0  0  0  0  0  0  0
    1.8384   -0.4932    0.0000 C   0  0  0  0  0  0  0  0  0  0  0  0
    2.6230    0.5868    0.0000 S   0  0  0  0  0  0  0  0  0  0  0  0
   -2.7312   -0.0807    0.0000 C   0  0  0  0  0  0  0  0  0  0  0  0
   -0.2562   -0.0807    0.0000 C   0  0  0  0  0  0  0  0  0  0  0  0
    2.6230   -0.7481    0.0000 C   0  0  0  0  0  0  0  0  0  0  0  0
    3.1079   -0.0807    0.0000 C   0  0  0  0  0  0  0  0  0  0  0  0
   -1.9062   -0.0807    0.0000 C   0  0  0  0  0  0  0  0  0  0  0  0
   -3.1437   -0.7951    0.0000 N   0  0  0  0  0  0  0  0  0  0  0  0
    0.7988    1.3714    0.0000 C   0  0  0  0  0  0  0  0  0  0  0  0
   -0.6687    0.6338    0.0000 C   0  0  0  0  0  0  0  0  0  0  0  0
   -0.6687   -0.7951    0.0000 C   0  0  0  0  0  0  0  0  0  0  0  0
   -1.4937   -0.7951    0.0000 C   0  0  0  0  0  0  0  0  0  0  0  0
   -1.4937    0.6338    0.0000 C   0  0  0  0  0  0  0  0  0  0  0  0
   -3.1437    0.6338    0.0000 N   0  0  0  0  0  0  0  0  0  0  0  0
  2  1  1  0
  3  2  2  0
  1  4  2  0
  5  4  1  0
  6  4  1  0
  7 11  1  0
  8  2  1  0
  9  5  1  0
 10  6  1  0
 11 16  1  0
 12  7  2  0
 13  1  1  0
 14  8  2  0
 15  8  1  0
 16 15  2  0
 17 14  1  0
 18  7  1  0
  5  3  1  0
 10  9  2  0
 17 11  2  0
M  CHG  1   1   1
M  END

> <chembl_id>
CHEMBL1626880

> <chembl_pref_name>
None

$$$$

     RDKit          2D

 23 24  0  0  0  0  0  0  0  0999 V2000
   14.9241  -18.8408    0.0000 Cl  0  0  0  0  0  0  0  0  0  0  0  0
   13.7751  -16.2370    0.0000 C   0  0  0  0  0  0  0  0  0  0  0  0
   12.9581  -16.2197    0.0000 C   0  0  0  0  0  0  0  0  0  0  0  0
   12.5387  -16.9162    0.0000 N   0  0  0  0  0  0  0  0  0  0  0  0
   12.9281  -17.6299    0.0000 C   0  0  0  0  0  0  0  0  0  0  0  0
   13.7451  -17.6472    0.0000 C   0  0  0  0  0  0  0  0  0  0  0  0
   14.1727  -16.9509    0.0000 N   0  0  0  0  0  0  0  0  0  0  0  0
   11.7217  -16.8989    0.0000 C   0  0  0  0  0  0  0  0  0  0  0  0
   11.3282  -16.1827    0.0000 C   0  0  0  0  0  0  0  0  0  0  0  0
   14.9897  -16.9682    0.0000 C   0  0  0  0  0  0  0  0  0  0  0  0
   15.4133  -16.2693    0.0000 C   0  0  0  0  0  0  0  0  0  0  0  0
   16.2303  -16.2867    0.0000 C   0  0  0  0  0  0  0  0  0  0  0  0
   16.6238  -17.0029    0.0000 N   0  0  0  0  0  0  0  0  0  0  0  0
   16.2759  -17.7382    0.0000 C   0  0  0  0  0  0  0  0  0  0  0  0
   16.8715  -18.2977    0.0000 N   0  0  0  0  0  0  0  0  0  0  0  0
   17.5877  -17.9042    0.0000 C   0  0  0  0  0  0  0  0  0  0  0  0
   17.4347  -17.1015    0.0000 N   0  0  0  0  0  0  0  0  0  0  0  0
   18.3271  -18.2523    0.0000 N   0  0  0  0  0  0  0  0  0  0  0  0
   19.0013  -17.7861    0.0000 O   0  0  0  0  0  0  0  0  0  0  0  0
   18.3984  -19.0667    0.0000 O   0  0  0  0  0  0  0  0  0  0  0  0
   11.2982  -17.5978    0.0000 O   0  0  0  0  0  0  0  0  0  0  0  0
   11.3412  -15.3690    0.0000 C   0  0  0  0  0  0  0  0  0  0  0  0
   10.6249  -15.7625    0.0000 C   0  0  0  0  0  0  0  0  0  0  0  0
  2  3  1  0
  2  7  1  0
  3  4  1  0
  4  5  1  0
  5  6  1  0
  6  7  1  0
  4  8  1  0
  8  9  1  0
  7 10  1  0
 10 11  1  0
 11 12  1  0
 12 13  1  0
 13 14  1  0
 14 15  2  0
 15 16  1  0
 16 17  2  0
 17 13  1  0
 16 18  1  0
 18 19  2  0
 18 20  1  0
  8 21  2  0
 22  9  1  0
 23 22  1  0
  9 23  1  0
M  CHG  2  18   1  20  -1
M  END

> <chembl_id>
CHEMBL2442713

> <chembl_pref_name>
None

$$$$

     RDKit          2D

132144  0  0  0  0  0  0  0  0999 V2000
    3.1108   -4.4826    0.0000 C   0  0  0  0  0  0  0  0  0  0  0  0
    3.5193   -5.1952    0.0000 C   0  0  0  0  0  0  0  0  0  0  0  0
    3.1033   -5.9005    0.0000 C   0  0  0  0  0  0  0  0  0  0  0  0
    3.5112   -6.6085    0.0000 C   0  0  0  0  0  0  0  0  0  0  0  0
    4.3291   -6.6115    0.0000 C   0  0  0  0  0  0  0  0  0  0  0  0
    4.7378   -5.9007    0.0000 C   0  0  0  0  0  0  0  0  0  0  0  0
    4.3318   -5.1957    0.0000 C   0  0  0  0  0  0  0  0  0  0  0  0
    5.5569   -5.8994    0.0000 C   0  0  0  0  0  0  0  0  0  0  0  0
    6.2695   -5.4827    0.0000 C   0  0  0  0  0  0  0  0  0  0  0  0
    6.9820   -5.8944    0.0000 C   0  0  0  0  0  0  0  0  0  0  0  0
    7.6901   -5.4784    0.0000 C   0  0  0  0  0  0  0  0  0  0  0  0
    7.6859   -4.6562    0.0000 C   0  0  0  0  0  0  0  0  0  0  0  0
    6.9678   -4.2518    0.0000 C   0  0  0  0  0  0  0  0  0  0  0  0
    6.2629   -4.6660    0.0000 C   0  0  0  0  0  0  0  0  0  0  0  0
    7.1738   -3.4533    0.0000 C   0  0  0  0  0  0  0  0  0  0  0  0
    6.7612   -2.7366    0.0000 C   0  0  0  0  0  0  0  0  0  0  0  0
    7.1745   -2.0182    0.0000 C   0  0  0  0  0  0  0  0  0  0  0  0
    6.7626   -1.3062    0.0000 C   0  0  0  0  0  0  0  0  0  0  0  0
    5.9368   -1.3083    0.0000 C   0  0  0  0  0  0  0  0  0  0  0  0
    5.5246   -2.0284    0.0000 C   0  0  0  0  0  0  0  0  0  0  0  0
    5.9430   -2.7376    0.0000 C   0  0  0  0  0  0  0  0  0  0  0  0
    3.1066   -3.6616    0.0000 C   0  0  0  0  0  0  0  0  0  0  0  0
    3.8173   -3.2515    0.0000 C   0  0  0  0  0  0  0  0  0  0  0  0
    3.8135   -2.4314    0.0000 C   0  0  0  0  0  0  0  0  0  0  0  0
    3.1004   -2.0216    0.0000 C   0  0  0  0  0  0  0  0  0  0  0  0
    2.3899   -2.4422    0.0000 C   0  0  0  0  0  0  0  0  0  0  0  0
    2.3972   -3.2610    0.0000 C   0  0  0  0  0  0  0  0  0  0  0  0
    4.5235   -2.0114    0.0000 C   0  0  0  0  0  0  0  0  0  0  0  0
    4.8242   -4.3898    0.0000 O   0  0  0  0  0  0  0  0  0  0  0  0
    5.7951   -4.6073    0.0000 C   0  0  0  0  0  0  0  0  0  0  0  0
    5.5451   -4.2591    0.0000 O   0  0  0  0  0  0  0  0  0  0  0  0
    5.5386   -3.4340    0.0000 C   0  0  0  0  0  0  0  0  0  0  0  0
    6.2499   -3.0159    0.0000 C   0  0  0  0  0  0  0  0  0  0  0  0
    5.2236   -3.1450    0.0000 O   0  0  0  0  0  0  0  0  0  0  0  0
    4.6667   -2.5847    0.0000 C   0  0  0  0  0  0  0  0  0  0  0  0
    4.6736   -1.7597    0.0000 C   0  0  0  0  0  0  0  0  0  0  0  0
    4.4203   -3.5124    0.0000 O   0  0  0  0  0  0  0  0  0  0  0  0
    4.4513   -4.5750    0.0000 C   0  0  0  0  0  0  0  0  0  0  0  0
    5.2001   -5.0151    0.0000 C   0  0  0  0  0  0  0  0  0  0  0  0
    5.2520   -5.7235    0.0000 C   0  0  0  0  0  0  0  0  0  0  0  0
    6.2042   -3.8264    0.0000 C   0  0  0  0  0  0  0  0  0  0  0  0
    6.8876   -3.8272    0.0000 C   0  0  0  0  0  0  0  0  0  0  0  0
    6.9676   -3.4228    0.0000 C   0  0  0  0  0  0  0  0  0  0  0  0
    7.6790   -3.0046    0.0000 C   0  0  0  0  0  0  0  0  0  0  0  0
    5.3916   -1.3532    0.0000 C   0  0  0  0  0  0  0  0  0  0  0  0
    3.0967   -7.3219    0.0000 C   0  0  0  0  0  0  0  0  0  0  0  0
    2.2717   -7.3199    0.0000 O   0  0  0  0  0  0  0  0  0  0  0  0
    3.5077   -8.0375    0.0000 N   0  0  0  0  0  0  0  0  0  0  0  0
    1.6713   -2.0367    0.0000 C   0  0  0  0  0  0  0  0  0  0  0  0
    0.9608   -2.4563    0.0000 N   0  0  0  0  0  0  0  0  0  0  0  0
    1.6631   -1.2116    0.0000 O   0  0  0  0  0  0  0  0  0  0  0  0
    7.1740   -0.5910    0.0000 C   0  0  0  0  0  0  0  0  0  0  0  0
    7.9991   -0.5896    0.0000 N   0  0  0  0  0  0  0  0  0  0  0  0
    6.7603    0.1214    0.0000 O   0  0  0  0  0  0  0  0  0  0  0  0
    8.4072   -5.8864    0.0000 C   0  0  0  0  0  0  0  0  0  0  0  0
    8.4124   -6.7114    0.0000 N   0  0  0  0  0  0  0  0  0  0  0  0
    9.1191   -5.4692    0.0000 O   0  0  0  0  0  0  0  0  0  0  0  0
    0.2422   -2.0508    0.0000 C   0  0  0  0  0  0  0  0  0  0  0  0
    3.0933   -8.7511    0.0000 C   0  0  0  0  0  0  0  0  0  0  0  0
    9.1296   -7.1194    0.0000 C   0  0  0  0  0  0  0  0  0  0  0  0
    0.2393   -1.2265    0.0000 C   0  0  0  0  0  0  0  0  0  0  0  0
   -0.4784   -0.8212    0.0000 C   0  0  0  0  0  0  0  0  0  0  0  0
   -1.1897   -1.2409    0.0000 C   0  0  0  0  0  0  0  0  0  0  0  0
   -1.1789   -2.0701    0.0000 C   0  0  0  0  0  0  0  0  0  0  0  0
   -0.4606   -2.4718    0.0000 C   0  0  0  0  0  0  0  0  0  0  0  0
    2.2685   -8.7471    0.0000 C   0  0  0  0  0  0  0  0  0  0  0  0
    1.8543   -9.4598    0.0000 C   0  0  0  0  0  0  0  0  0  0  0  0
    2.2652  -10.1763    0.0000 C   0  0  0  0  0  0  0  0  0  0  0  0
    3.0945  -10.1757    0.0000 C   0  0  0  0  0  0  0  0  0  0  0  0
    3.5051   -9.4623    0.0000 C   0  0  0  0  0  0  0  0  0  0  0  0
    9.1306   -7.9424    0.0000 C   0  0  0  0  0  0  0  0  0  0  0  0
    9.8470   -8.3503    0.0000 C   0  0  0  0  0  0  0  0  0  0  0  0
   10.5599   -7.9331    0.0000 C   0  0  0  0  0  0  0  0  0  0  0  0
   10.5520   -7.1038    0.0000 C   0  0  0  0  0  0  0  0  0  0  0  0
    9.8352   -6.6996    0.0000 C   0  0  0  0  0  0  0  0  0  0  0  0
   -0.4873    0.0058    0.0000 C   0  0  0  0  0  0  0  0  0  0  0  0
    0.2234    0.4251    0.0000 O   0  0  0  0  0  0  0  0  0  0  0  0
   -1.2056    0.4117    0.0000 O   0  0  0  0  0  0  0  0  0  0  0  0
   -1.8891   -2.4929    0.0000 C   0  0  0  0  0  0  0  0  0  0  0  0
   -1.8780   -3.3178    0.0000 O   0  0  0  0  0  0  0  0  0  0  0  0
    1.0265   -9.4567    0.0000 C   0  0  0  0  0  0  0  0  0  0  0  0
    0.6119  -10.1701    0.0000 O   0  0  0  0  0  0  0  0  0  0  0  0
    3.5082  -10.8916    0.0000 C   0  0  0  0  0  0  0  0  0  0  0  0
    3.0963  -11.6067    0.0000 O   0  0  0  0  0  0  0  0  0  0  0  0
    4.3331  -10.8907    0.0000 O   0  0  0  0  0  0  0  0  0  0  0  0
    9.8529   -9.1765    0.0000 C   0  0  0  0  0  0  0  0  0  0  0  0
    9.1407   -9.5932    0.0000 O   0  0  0  0  0  0  0  0  0  0  0  0
   10.5698   -9.5847    0.0000 O   0  0  0  0  0  0  0  0  0  0  0  0
   11.2635   -6.6812    0.0000 C   0  0  0  0  0  0  0  0  0  0  0  0
   11.2553   -5.8562    0.0000 O   0  0  0  0  0  0  0  0  0  0  0  0
    8.4105    0.1257    0.0000 C   0  0  0  0  0  0  0  0  0  0  0  0
    9.2360    0.1252    0.0000 C   0  0  0  0  0  0  0  0  0  0  0  0
    9.6472    0.8395    0.0000 C   0  0  0  0  0  0  0  0  0  0  0  0
    9.2335    1.5544    0.0000 C   0  0  0  0  0  0  0  0  0  0  0  0
    8.4041    1.5504    0.0000 C   0  0  0  0  0  0  0  0  0  0  0  0
    7.9966    0.8354    0.0000 C   0  0  0  0  0  0  0  0  0  0  0  0
    7.9874    2.2637    0.0000 C   0  0  0  0  0  0  0  0  0  0  0  0
    8.3963    2.9805    0.0000 O   0  0  0  0  0  0  0  0  0  0  0  0
    7.1624    2.2594    0.0000 O   0  0  0  0  0  0  0  0  0  0  0  0
   10.4746    0.8405    0.0000 C   0  0  0  0  0  0  0  0  0  0  0  0
   10.8864    1.5555    0.0000 O   0  0  0  0  0  0  0  0  0  0  0  0
    5.3985   -0.5285    0.0000 C   0  0  0  0  0  0  0  0  0  0  0  0
    7.4764   -4.1650    0.0000 C   0  0  0  0  0  0  0  0  0  0  0  0
    5.8915   -6.0328    0.0000 C   0  0  0  0  0  0  0  0  0  0  0  0
   11.7127    0.1275    0.0000 C   0  0  0  0  0  0  0  0  0  0  0  0
   -3.3190   -2.5125    0.0000 C   0  0  0  0  0  0  0  0  0  0  0  0
   12.6921   -6.6673    0.0000 C   0  0  0  0  0  0  0  0  0  0  0  0
   -0.2087   -8.7387    0.0000 C   0  0  0  0  0  0  0  0  0  0  0  0
   -4.0401   -2.1124    0.0000 C   0  0  0  0  0  0  0  0  0  0  0  0
   -4.7461   -2.5315    0.0000 C   0  0  0  0  0  0  0  0  0  0  0  0
   -4.7384   -3.3565    0.0000 C   0  0  0  0  0  0  0  0  0  0  0  0
   -4.0185   -3.7607    0.0000 C   0  0  0  0  0  0  0  0  0  0  0  0
   -3.3061   -3.3398    0.0000 C   0  0  0  0  0  0  0  0  0  0  0  0
   12.1256   -0.5907    0.0000 C   0  0  0  0  0  0  0  0  0  0  0  0
   12.9467   -0.5917    0.0000 C   0  0  0  0  0  0  0  0  0  0  0  0
   13.3620    0.1213    0.0000 C   0  0  0  0  0  0  0  0  0  0  0  0
   12.9500    0.8368    0.0000 C   0  0  0  0  0  0  0  0  0  0  0  0
   12.1227    0.8394    0.0000 C   0  0  0  0  0  0  0  0  0  0  0  0
   13.4065   -7.0741    0.0000 C   0  0  0  0  0  0  0  0  0  0  0  0
   14.1145   -6.6584    0.0000 C   0  0  0  0  0  0  0  0  0  0  0  0
   14.1107   -5.8333    0.0000 C   0  0  0  0  0  0  0  0  0  0  0  0
   13.3927   -5.4257    0.0000 C   0  0  0  0  0  0  0  0  0  0  0  0
   12.6784   -5.8433    0.0000 C   0  0  0  0  0  0  0  0  0  0  0  0
   -0.6181   -8.0220    0.0000 C   0  0  0  0  0  0  0  0  0  0  0  0
   -1.4392   -8.0178    0.0000 C   0  0  0  0  0  0  0  0  0  0  0  0
   -1.8574   -8.7290    0.0000 C   0  0  0  0  0  0  0  0  0  0  0  0
   -1.4482   -9.4462    0.0000 C   0  0  0  0  0  0  0  0  0  0  0  0
   -0.6210   -9.4522    0.0000 C   0  0  0  0  0  0  0  0  0  0  0  0
    0.6160   -8.7410    0.0000 N   0  0  0  0  0  0  0  0  0  0  0  0
   -2.6109   -2.0899    0.0000 N   0  0  0  0  0  0  0  0  0  0  0  0
   10.8881    0.1265    0.0000 N   0  0  0  0  0  0  0  0  0  0  0  0
   11.9819   -7.0866    0.0000 N   0  0  0  0  0  0  0  0  0  0  0  0
 73 74  1  0
 34 35  1  0
 74 75  2  0
 75 60  1  0
 16 17  2  0
 35 36  1  0
 76 77  1  0
 76 78  2  0
 62 76  1  0
 23 37  1  0
 17 18  1  0
 37 38  1  0
 79130  1  0
 79 80  2  0
 64 79  1  0
  8  9  1  0
 38 39  1  0
 18 19  2  0
 81129  1  0
 81 82  2  0
 67 81  1  0
 39 40  1  0
  4  5  2  0
 30 41  1  0
 83 84  1  0
 83 85  2  0
 69 83  1  0
 19 20  1  0
 41 42  1  0
  9 10  2  0
 86 87  1  0
 86 88  2  0
 72 86  1  0
 33 43  1  0
 20 21  2  0
 43 44  1  0
 89132  1  0
 89 90  2  0
 74 89  1  0
 21 16  1  0
 53 91  1  0
 36 45  1  0
 91 92  2  0
  2  3  2  0
 92 93  1  0
  4 46  1  0
 93 94  2  0
  1 22  1  0
 94 95  1  0
 46 47  2  0
 95 96  2  0
 96 91  1  0
 10 11  1  0
 46 48  1  0
 22 23  2  0
 97 98  1  0
 97 99  2  0
 95 97  1  0
 26 49  1  0
  5  6  1  0
 49 50  1  0
100131  1  0
100101  2  0
 93100  1  0
 23 24  1  0
 49 51  2  0
 11 12  2  0
 18 52  1  0
 24 25  2  0
 52 53  1  0
  1  2  1  0
 52 54  2  0
 25 26  1  0
 11 55  1  0
 12 13  1  0
 55 56  1  0
 26 27  2  0
 55 57  2  0
 27 22  1  0
 50 58  1  0
  6  7  2  0
 48 59  1  0
 24 28  1  0
 56 60  1  0
 28 20  1  0
 58 61  2  0
 13 14  2  0
 61 62  1  0
 45102  1  0
  7 29  1  0
 42103  1  0
 62 63  2  0
 40104  1  0
131105  1  0
 14  9  1  0
130106  1  0
 63 64  1  0
132107  1  0
 29 30  1  0
129108  1  0
106109  1  0
 64 65  2  0
 65 58  1  0
  7  2  1  0
 59 66  2  0
 14 31  1  0
106113  1  0
109110  1  0
110111  1  0
111112  1  0
112113  1  0
105114  1  0
 66 67  1  0
 13 15  1  0
 67 68  2  0
 31 32  1  0
 68 69  1  0
105118  1  0
114115  1  0
115116  1  0
116117  1  0
117118  1  0
107119  1  0
  3  4  1  0
 69 70  2  0
 70 59  1  0
 32 33  1  0
 60 71  2  0
107123  1  0
119120  1  0
120121  1  0
121122  1  0
122123  1  0
108124  1  0
 15 16  1  0
 71 72  1  0
 21 34  1  0
 72 73  2  0
  6  8  1  0
108128  1  0
124125  1  0
125126  1  0
126127  1  0
127128  1  0
M  END

> <chembl_id>
CHEMBL1090294

> <chembl_pref_name>
None

$$$$

     RDKit          2D

 15 16  0  0  0  0  0  0  0  0999 V2000
    3.4250   -1.8667    0.0000 N   0  0  0  0  0  0  0  0  0  0  0  0
    2.8750   -2.4792    0.0000 C   0  0  0  0  0  0  0  0  0  0  0  0
    3.0042   -1.1542    0.0000 C   0  0  0  0  0  0  0  0  0  0  0  0
    2.1167   -2.1542    0.0000 C   0  0  0  0  0  0  0  0  0  0  0  0
    2.2042   -1.3292    0.0000 O   0  0  0  0  0  0  0  0  0  0  0  0
    1.4042   -2.5667    0.0000 C   0  0  0  0  0  0  0  0  0  0  0  0
    3.0500   -3.2917    0.0000 O   0  0  0  0  0  0  0  0  0  0  0  0
    0.6917   -2.1542    0.0000 C   0  0  0  0  0  0  0  0  0  0  0  0
    1.4042   -3.4000    0.0000 C   0  0  0  0  0  0  0  0  0  0  0  0
    3.3417   -0.4000    0.0000 O   0  0  0  0  0  0  0  0  0  0  0  0
   -0.0250   -2.5667    0.0000 C   0  0  0  0  0  0  0  0  0  0  0  0
    0.6917   -3.8125    0.0000 C   0  0  0  0  0  0  0  0  0  0  0  0
   -0.0208   -3.4000    0.0000 C   0  0  0  0  0  0  0  0  0  0  0  0
    0.6917   -4.6375    0.0000 F   0  0  0  0  0  0  0  0  0  0  0  0
    0.6917   -1.3292    0.0000 C   0  0  0  0  0  0  0  0  0  0  0  0
  2  1  1  0
  3  1  1  0
  4  2  1  0
  5  3  1  0
  6  4  1  0
  7  2  2  0
  8  6  2  0
  9  6  1  0
 10  3  2  0
 11  8  1  0
 12  9  2  0
 13 12  1  0
 14 12  1  0
 15  8  1  0
  5  4  1  0
 11 13  2  0
M  END

> <chembl_id>
CHEMBL165089

> <chembl_pref_name>
None

$$$$

     RDKit          2D

 23 25  0  0  0  0  0  0  0  0999 V2000
   -0.5608   -1.6493    0.0000 S   0  0  0  0  0  0  0  0  0  0  0  0
   -0.5608   -0.8243    0.0000 F   0  0  0  0  0  0  0  0  0  0  0  0
    0.1537   -2.8868    0.0000 N   0  0  0  0  0  0  0  0  0  0  0  0
    0.1537   -4.5368    0.0000 N   0  0  0  0  0  0  0  0  0  0  0  0
    0.8682   -1.6493    0.0000 N   0  0  0  0  0  0  0  0  0  0  0  0
    0.1537   -2.0618    0.0000 C   0  0  0  0  0  0  0  0  0  0  0  0
    0.8682   -0.8243    0.0000 C   0  0  0  0  0  0  0  0  0  0  0  0
    0.8682   -3.2993    0.0000 C   0  0  0  0  0  0  0  0  0  0  0  0
   -0.5608   -3.2993    0.0000 C   0  0  0  0  0  0  0  0  0  0  0  0
    0.1537   -0.4118    0.0000 C   0  0  0  0  0  0  0  0  0  0  0  0
    0.8682   -4.1243    0.0000 C   0  0  0  0  0  0  0  0  0  0  0  0
   -0.5608   -4.1243    0.0000 C   0  0  0  0  0  0  0  0  0  0  0  0
    0.1537   -5.3618    0.0000 C   0  0  0  0  0  0  0  0  0  0  0  0
    1.5826   -0.4118    0.0000 C   0  0  0  0  0  0  0  0  0  0  0  0
   -0.5608   -5.7743    0.0000 C   0  0  0  0  0  0  0  0  0  0  0  0
    0.1537    0.4132    0.0000 C   0  0  0  0  0  0  0  0  0  0  0  0
    1.5826    0.4132    0.0000 C   0  0  0  0  0  0  0  0  0  0  0  0
    0.8682    0.8257    0.0000 C   0  0  0  0  0  0  0  0  0  0  0  0
   -0.5608   -6.5993    0.0000 C   0  0  0  0  0  0  0  0  0  0  0  0
   -1.2752   -5.3618    0.0000 C   0  0  0  0  0  0  0  0  0  0  0  0
   -1.2752   -7.0118    0.0000 C   0  0  0  0  0  0  0  0  0  0  0  0
   -1.9897   -5.7743    0.0000 C   0  0  0  0  0  0  0  0  0  0  0  0
   -1.9897   -6.5993    0.0000 C   0  0  0  0  0  0  0  0  0  0  0  0
  1  6  1  0
  2 10  1  0
  3  6  1  0
  3  8  1  0
  3  9  1  0
  4 11  1  0
  4 12  1  0
  4 13  1  0
  5  6  2  3
  5  7  1  0
  7 10  1  0
  7 14  2  0
  8 11  1  0
  9 12  1  0
 10 16  2  0
 13 15  1  0
 14 17  1  0
 15 19  2  0
 15 20  1  0
 16 18  1  0
 17 18  2  0
 19 21  1  0
 20 22  2  0
 21 23  2  0
 22 23  1  0
M  END

> <chembl_id>
CHEMBL1340674

> <chembl_pref_name>
None

$$$$

     RDKit          2D

 23 25  0  0  0  0  0  0  0  0999 V2000
    2.4185   -3.5407    0.0000 Cl  0  0  0  0  0  0  0  0  0  0  0  0
    4.9374   -0.5598    0.0000 S   0  0  0  0  0  0  0  0  0  0  0  0
    4.5808    1.8579    0.0000 S   0  0  0  0  0  0  0  0  0  0  0  0
    2.7238    1.3452    0.0000 O   0  0  0  0  0  0  0  0  0  0  0  0
    4.2229    0.6777    0.0000 N   0  0  0  0  0  0  0  0  0  0  0  0
    3.4383   -0.4022    0.0000 N   0  0  0  0  0  0  0  0  0  0  0  0
    3.4383    0.9327    0.0000 C   0  0  0  0  0  0  0  0  0  0  0  0
    4.2229   -0.1473    0.0000 C   0  0  0  0  0  0  0  0  0  0  0  0
    2.9534    0.2652    0.0000 C   0  0  0  0  0  0  0  0  0  0  0  0
    3.7738    1.6863    0.0000 C   0  0  0  0  0  0  0  0  0  0  0  0
    3.1833   -1.1868    0.0000 C   0  0  0  0  0  0  0  0  0  0  0  0
    4.9374    1.0902    0.0000 C   0  0  0  0  0  0  0  0  0  0  0  0
    3.3613    2.4008    0.0000 C   0  0  0  0  0  0  0  0  0  0  0  0
    5.6518    0.6777    0.0000 C   0  0  0  0  0  0  0  0  0  0  0  0
    5.6518   -0.1473    0.0000 C   0  0  0  0  0  0  0  0  0  0  0  0
    3.7354   -1.7999    0.0000 C   0  0  0  0  0  0  0  0  0  0  0  0
    2.3764   -1.3584    0.0000 C   0  0  0  0  0  0  0  0  0  0  0  0
    4.6670    2.6783    0.0000 C   0  0  0  0  0  0  0  0  0  0  0  0
    3.9134    3.0139    0.0000 C   0  0  0  0  0  0  0  0  0  0  0  0
    3.4804   -2.5846    0.0000 C   0  0  0  0  0  0  0  0  0  0  0  0
    2.1214   -2.1430    0.0000 C   0  0  0  0  0  0  0  0  0  0  0  0
    2.6735   -2.7561    0.0000 C   0  0  0  0  0  0  0  0  0  0  0  0
    0.0000    0.0000    0.0000 Br  0  0  0  0  0  0  0  0  0  0  0  0
  1 22  1  0
  2  8  1  0
  2 15  1  0
  3 10  1  0
  3 18  1  0
  4  7  1  0
  5  7  1  0
  5  8  1  0
  5 12  1  0
  6  8  2  0
  6  9  1  0
  6 11  1  0
  7  9  1  0
  7 10  1  0
 10 13  2  0
 11 16  2  0
 11 17  1  0
 12 14  1  0
 13 19  1  0
 14 15  1  0
 16 20  1  0
 17 21  2  0
 18 19  2  0
 20 22  2  0
 21 22  1  0
M  CHG  2   6   1  23  -1
M  END

> <chembl_id>
CHEMBL1708791

> <chembl_pref_name>
None

$$$$

     RDKit          2D

 15 16  0  0  0  0  0  0  0  0999 V2000
   -0.4570   -1.3931    0.0000 S   0  0  0  0  0  0  0  0  0  0  0  0
   -0.0787    2.2172    0.0000 O   0  0  0  0  0  0  0  0  0  0  0  0
   -0.3086    0.7651    0.0000 O   0  0  0  0  0  0  0  0  0  0  0  0
    0.3437   -0.1601    0.0000 N   0  0  0  0  0  0  0  0  0  0  0  0
    1.5632   -0.7030    0.0000 N   0  0  0  0  0  0  0  0  0  0  0  0
    1.0111   -1.3161    0.0000 N   0  0  0  0  0  0  0  0  0  0  0  0
    1.0013    1.4325    0.0000 C   0  0  0  0  0  0  0  0  0  0  0  0
    0.5888    2.7021    0.0000 C   0  0  0  0  0  0  0  0  0  0  0  0
    0.1763    1.4325    0.0000 C   0  0  0  0  0  0  0  0  0  0  0  0
    1.2562    2.2172    0.0000 C   0  0  0  0  0  0  0  0  0  0  0  0
    1.1507    0.0114    0.0000 C   0  0  0  0  0  0  0  0  0  0  0  0
    1.4862    0.7651    0.0000 C   0  0  0  0  0  0  0  0  0  0  0  0
    0.2574   -0.9806    0.0000 C   0  0  0  0  0  0  0  0  0  0  0  0
    0.1838    3.4208    0.0000 C   0  0  0  0  0  0  0  0  0  0  0  0
    0.9938    3.4208    0.0000 C   0  0  0  0  0  0  0  0  0  0  0  0
  1 13  1  0
  2  8  1  0
  2  9  1  0
  3  9  2  0
  4 11  1  0
  4 13  2  0
  5  6  1  0
  5 11  2  0
  6 13  1  0
  7  9  1  0
  7 10  1  0
  7 12  1  0
  8 10  1  0
  8 14  1  0
  8 15  1  0
 11 12  1  0
M  END

> <chembl_id>
CHEMBL1400649

> <chembl_pref_name>
None

$$$$

     RDKit          2D

 23 25  0  0  0  0  0  0  0  0999 V2000
    1.4538   -2.2490    0.0000 O   0  0  0  0  0  0  0  0  0  0  0  0
    3.0082   -3.8176    0.0000 O   0  0  0  0  0  0  0  0  0  0  0  0
    1.5871   -3.9669    0.0000 O   0  0  0  0  0  0  0  0  0  0  0  0
   -0.0308    0.8490    0.0000 O   0  0  0  0  0  0  0  0  0  0  0  0
   -1.0927    1.8051    0.0000 O   0  0  0  0  0  0  0  0  0  0  0  0
    1.3282   -0.0443    0.0000 N   0  0  0  0  0  0  0  0  0  0  0  0
   -0.2857    1.6336    0.0000 N   0  0  0  0  0  0  0  0  0  0  0  0
    2.1128    0.2106    0.0000 C   0  0  0  0  0  0  0  0  0  0  0  0
    2.1128    1.0356    0.0000 C   0  0  0  0  0  0  0  0  0  0  0  0
    1.3282    1.2905    0.0000 C   0  0  0  0  0  0  0  0  0  0  0  0
    0.8433    0.6231    0.0000 C   0  0  0  0  0  0  0  0  0  0  0  0
    1.0733   -0.8290    0.0000 C   0  0  0  0  0  0  0  0  0  0  0  0
    1.6253   -1.4421    0.0000 C   0  0  0  0  0  0  0  0  0  0  0  0
    2.8273   -0.2019    0.0000 C   0  0  0  0  0  0  0  0  0  0  0  0
    2.8273    1.4481    0.0000 C   0  0  0  0  0  0  0  0  0  0  0  0
    2.1683   -2.6615    0.0000 C   0  0  0  0  0  0  0  0  0  0  0  0
    1.0733    2.0752    0.0000 C   0  0  0  0  0  0  0  0  0  0  0  0
    2.4458   -1.3558    0.0000 C   0  0  0  0  0  0  0  0  0  0  0  0
    2.7814   -2.1095    0.0000 C   0  0  0  0  0  0  0  0  0  0  0  0
    3.5418    0.2106    0.0000 C   0  0  0  0  0  0  0  0  0  0  0  0
    3.5418    1.0356    0.0000 C   0  0  0  0  0  0  0  0  0  0  0  0
    2.2545   -3.4820    0.0000 C   0  0  0  0  0  0  0  0  0  0  0  0
    0.2663    2.2467    0.0000 C   0  0  0  0  0  0  0  0  0  0  0  0
  1 13  1  0
  1 16  1  0
  2 22  2  0
  3 22  1  0
  4  7  1  0
  5  7  2  0
  6  8  1  0
  6 11  1  0
  6 12  1  0
  7 23  1  0
  8  9  1  0
  8 14  2  0
  9 10  1  0
  9 15  2  0
 10 11  2  0
 10 17  1  0
 12 13  1  0
 13 18  2  0
 14 20  1  0
 15 21  1  0
 16 19  2  0
 16 22  1  0
 17 23  2  0
 18 19  1  0
 20 21  2  0
M  CHG  2   4  -1   7   1
M  END

> <chembl_id>
CHEMBL1407694

> <chembl_pref_name>
None

$$$$

     RDKit          2D

 21 22  0  0  0  0  0  0  0  0999 V2000
   -2.1696    1.3531    0.0000 S   0  0  0  0  0  0  0  0  0  0  0  0
   -0.0262   -4.8344    0.0000 S   0  0  0  0  0  0  0  0  0  0  0  0
   -2.1696    2.1781    0.0000 O   0  0  0  0  0  0  0  0  0  0  0  0
   -2.9946    1.3531    0.0000 O   0  0  0  0  0  0  0  0  0  0  0  0
   -2.8841   -2.3594    0.0000 O   0  0  0  0  0  0  0  0  0  0  0  0
   -2.1696    0.5281    0.0000 N   0  0  0  0  0  0  0  0  0  0  0  0
   -1.4552   -2.3594    0.0000 N   0  0  0  0  0  0  0  0  0  0  0  0
   -2.1696   -1.1219    0.0000 C   0  0  0  0  0  0  0  0  0  0  0  0
   -2.1696   -1.9469    0.0000 C   0  0  0  0  0  0  0  0  0  0  0  0
   -1.4552    0.1156    0.0000 C   0  0  0  0  0  0  0  0  0  0  0  0
   -2.8841    0.1156    0.0000 C   0  0  0  0  0  0  0  0  0  0  0  0
   -1.4552   -0.7094    0.0000 C   0  0  0  0  0  0  0  0  0  0  0  0
   -2.8841   -0.7094    0.0000 C   0  0  0  0  0  0  0  0  0  0  0  0
   -1.4552   -3.1844    0.0000 C   0  0  0  0  0  0  0  0  0  0  0  0
   -0.7407   -3.5969    0.0000 C   0  0  0  0  0  0  0  0  0  0  0  0
   -0.7407   -4.4219    0.0000 C   0  0  0  0  0  0  0  0  0  0  0  0
   -2.1696   -3.5969    0.0000 C   0  0  0  0  0  0  0  0  0  0  0  0
   -1.3446    1.3531    0.0000 C   0  0  0  0  0  0  0  0  0  0  0  0
   -1.4552   -4.8344    0.0000 C   0  0  0  0  0  0  0  0  0  0  0  0
   -2.1696   -4.4219    0.0000 C   0  0  0  0  0  0  0  0  0  0  0  0
    0.6883   -4.4219    0.0000 C   0  0  0  0  0  0  0  0  0  0  0  0
  1  3  2  0
  1  4  2  0
  1  6  1  0
  1 18  1  0
  2 16  1  0
  2 21  1  0
  5  9  2  0
  6 10  1  0
  6 11  1  0
  7  9  1  0
  7 14  1  0
  8  9  1  0
  8 12  1  0
  8 13  1  0
 10 12  1  0
 11 13  1  0
 14 15  2  0
 14 17  1  0
 15 16  1  0
 16 19  2  0
 17 20  2  0
 19 20  1  0
M  END

> <chembl_id>
CHEMBL1400094

> <chembl_pref_name>
None

$$$$

     RDKit          2D

 31 34  0  0  0  0  0  0  0  0999 V2000
   18.4375   -0.6042    0.0000 C   0  0  0  0  0  0  0  0  0  0  0  0
   17.7208   -0.1917    0.0000 C   0  0  0  0  0  0  0  0  0  0  0  0
   17.0042   -0.6125    0.0000 C   0  0  0  0  0  0  0  0  0  0  0  0
   19.1375   -0.1875    0.0000 C   0  0  0  0  0  0  0  0  0  0  0  0
   16.2875   -0.2000    0.0000 C   0  0  0  0  0  0  0  0  0  0  0  0
   18.4375   -1.4292    0.0000 C   0  0  0  0  0  0  0  0  0  0  0  0
   17.0042   -1.4292    0.0000 C   0  0  0  0  0  0  0  0  0  0  0  0
   17.7208   -1.8417    0.0000 O   0  0  0  0  0  0  0  0  0  0  0  0
   15.5750   -0.6125    0.0000 C   0  0  0  0  0  0  0  0  0  0  0  0
   19.1500   -1.8375    0.0000 C   0  0  0  0  0  0  0  0  0  0  0  0
   16.2875   -1.8542    0.0000 C   0  0  0  0  0  0  0  0  0  0  0  0
   15.5750   -1.4417    0.0000 C   0  0  0  0  0  0  0  0  0  0  0  0
   16.2875    0.6250    0.0000 C   0  0  0  0  0  0  0  0  0  0  0  0
   15.5750    1.0333    0.0000 C   0  0  0  0  0  0  0  0  0  0  0  0
   17.7125    0.6333    0.0000 O   0  0  0  0  0  0  0  0  0  0  0  0
   15.5708    1.8583    0.0000 C   0  0  0  0  0  0  0  0  0  0  0  0
   19.1375    0.6375    0.0000 O   0  0  0  0  0  0  0  0  0  0  0  0
   14.8625   -0.2042    0.0000 O   0  0  0  0  0  0  0  0  0  0  0  0
   14.8625   -1.8542    0.0000 O   0  0  0  0  0  0  0  0  0  0  0  0
   14.8500    2.2708    0.0000 C   0  0  0  0  0  0  0  0  0  0  0  0
   16.2833    2.2792    0.0000 C   0  0  0  0  0  0  0  0  0  0  0  0
   14.1500   -0.6167    0.0000 C   0  0  0  0  0  0  0  0  0  0  0  0
   19.8629   -0.5916    0.0000 C   0  0  0  0  0  0  0  0  0  0  0  0
   19.8625   -1.4167    0.0000 C   0  0  0  0  0  0  0  0  0  0  0  0
   20.6470   -1.6720    0.0000 O   0  0  0  0  0  0  0  0  0  0  0  0
   21.1324   -1.0047    0.0000 C   0  0  0  0  0  0  0  0  0  0  0  0
   20.6477   -0.3371    0.0000 C   0  0  0  0  0  0  0  0  0  0  0  0
   21.9574   -1.0051    0.0000 C   0  0  0  0  0  0  0  0  0  0  0  0
   22.3696   -1.7197    0.0000 C   0  0  0  0  0  0  0  0  0  0  0  0
   22.3702   -0.2908    0.0000 C   0  0  0  0  0  0  0  0  0  0  0  0
   22.7792   -1.0042    0.0000 O   0  0  0  0  0  0  0  0  0  0  0  0
  9  5  1  0
 24 10  2  0
 10  6  1  0
 11  7  2  0
 12 11  1  0
 13  5  1  0
 14 13  1  0
 15  2  2  0
 16 14  2  0
 17  4  1  0
 18  9  1  0
 19 12  1  0
 20 16  1  0
 21 16  1  0
 22 18  1  0
  3  7  1  0
  9 12  2  0
 23 24  1  0
  2  1  1  0
  3  2  1  0
  4  1  1  0
  5  3  2  0
 24 25  1  0
 25 26  1  0
 26 27  1  0
 27 23  1  0
  6  1  2  0
 26 28  1  6
  7  8  1  0
 28 29  1  0
 23  4  2  0
 28 30  1  0
  8  6  1  0
 28 31  1  0
M  END

> <chembl_id>
CHEMBL1080698

> <chembl_pref_name>
None

$$$$

     RDKit          2D

 19 21  0  0  0  0  0  0  0  0999 V2000
    2.3383   -1.3500    0.0000 C   0  0  0  0  0  0  0  0  0  0  0  0
    1.2990   -0.7500    0.0000 C   0  0  0  0  0  0  0  0  0  0  0  0
    1.2990    0.7500    0.0000 C   0  0  0  0  0  0  0  0  0  0  0  0
    0.0000    1.5000    0.0000 C   0  0  0  0  0  0  0  0  0  0  0  0
   -0.3115    2.9665    0.0000 N   0  0  0  0  0  0  0  0  0  0  0  0
   -1.8032    3.1233    0.0000 C   0  0  0  0  0  0  0  0  0  0  0  0
   -2.4133    1.7530    0.0000 N   0  0  0  0  0  0  0  0  0  0  0  0
   -3.8794    1.4442    0.0000 C   0  0  0  0  0  0  0  0  0  0  0  0
   -4.8823    2.5608    0.0000 C   0  0  0  0  0  0  0  0  0  0  0  0
   -6.3506    2.2538    0.0000 C   0  0  0  0  0  0  0  0  0  0  0  0
   -7.3506    3.3718    0.0000 C   0  0  0  0  0  0  0  0  0  0  0  0
   -6.8824    4.7968    0.0000 C   0  0  0  0  0  0  0  0  0  0  0  0
   -7.6825    5.6912    0.0000 Cl  0  0  0  0  0  0  0  0  0  0  0  0
   -5.4142    5.1039    0.0000 C   0  0  0  0  0  0  0  0  0  0  0  0
   -4.4142    3.9859    0.0000 C   0  0  0  0  0  0  0  0  0  0  0  0
   -1.2990    0.7500    0.0000 C   0  0  0  0  0  0  0  0  0  0  0  0
   -1.2990   -0.7500    0.0000 C   0  0  0  0  0  0  0  0  0  0  0  0
    0.0000   -1.5000    0.0000 C   0  0  0  0  0  0  0  0  0  0  0  0
    0.0000   -2.7000    0.0000 C   0  0  0  0  0  0  0  0  0  0  0  0
  1  2  1  0
  2  3  2  0
  3  4  1  0
  4  5  1  0
  5  6  2  0
  6  7  1  0
  7  8  1  0
  8  9  1  0
  9 10  2  0
 10 11  1  0
 11 12  2  0
 12 13  1  0
 12 14  1  0
 14 15  2  0
 15  9  1  0
  7 16  1  0
 16  4  2  0
 16 17  1  0
 17 18  2  0
 18  2  1  0
 18 19  1  0
M  END

> <chembl_id>
CHEMBL1945694

> <chembl_pref_name>
None

$$$$

     RDKit          2D

 23 23  0  0  0  0  0  0  0  0999 V2000
    4.2028  -24.8110    0.0000 Cl  0  0  0  0  0  0  0  0  0  0  0  0
    3.5261  -22.4769    0.0000 C   0  0  0  0  0  0  0  0  0  0  0  0
    3.2822  -23.2344    0.0000 C   0  0  0  0  0  0  0  0  0  0  0  0
    3.9370  -23.7377    0.0000 N   0  0  0  0  0  0  0  0  0  0  0  0
    4.6191  -23.2678    0.0000 C   0  0  0  0  0  0  0  0  0  0  0  0
    4.3809  -22.4782    0.0000 C   0  0  0  0  0  0  0  0  0  0  0  0
    5.3976  -23.5409    0.0000 C   0  0  0  0  0  0  0  0  0  0  0  0
    3.1138  -21.7625    0.0000 O   0  0  0  0  0  0  0  0  0  0  0  0
    3.5218  -21.0558    0.0000 C   0  0  0  0  0  0  0  0  0  0  0  0
    3.1072  -20.3377    0.0000 C   0  0  0  0  0  0  0  0  0  0  0  0
    3.5158  -19.6392    0.0000 C   0  0  0  0  0  0  0  0  0  0  0  0
    3.1039  -18.9201    0.0000 C   0  0  0  0  0  0  0  0  0  0  0  0
    2.2911  -18.9070    0.0000 C   0  0  0  0  0  0  0  0  0  0  0  0
    1.8605  -19.6326    0.0000 C   0  0  0  0  0  0  0  0  0  0  0  0
    2.2709  -20.3466    0.0000 C   0  0  0  0  0  0  0  0  0  0  0  0
    1.8786  -18.1926    0.0000 C   0  0  0  0  0  0  0  0  0  0  0  0
    1.0583  -18.1926    0.0000 C   0  0  0  0  0  0  0  0  0  0  0  0
    0.6447  -17.4762    0.0000 C   0  0  0  0  0  0  0  0  0  0  0  0
    1.0577  -16.7609    0.0000 C   0  0  0  0  0  0  0  0  0  0  0  0
    1.8832  -16.7609    0.0000 C   0  0  0  0  0  0  0  0  0  0  0  0
    2.2955  -16.0467    0.0000 C   0  0  0  0  0  0  0  0  0  0  0  0
    3.1206  -16.0467    0.0000 C   0  0  0  0  0  0  0  0  0  0  0  0
    3.5331  -16.7612    0.0000 C   0  0  0  0  0  0  0  0  0  0  0  0
  2  3  1  0
  3  4  1  0
  4  5  1  0
  5  6  1  0
  6  2  1  0
  5  7  1  1
  2  8  1  6
  8  9  1  0
  9 10  1  0
 10 11  2  0
 11 12  1  0
 12 13  2  0
 13 14  1  0
 14 15  2  0
 15 10  1  0
 13 16  1  0
 16 17  1  0
 17 18  1  0
 18 19  1  0
 19 20  1  0
 20 21  1  0
 21 22  1  0
 22 23  1  0
M  END

> <chembl_id>
CHEMBL2441550

> <chembl_pref_name>
None

$$$$

     RDKit          2D

 24 24  0  0  0  0  0  0  0  0999 V2000
    4.1733  -14.9405    0.0000 Cl  0  0  0  0  0  0  0  0  0  0  0  0
    3.4010  -12.3234    0.0000 C   0  0  0  0  0  0  0  0  0  0  0  0
    3.1572  -13.0808    0.0000 C   0  0  0  0  0  0  0  0  0  0  0  0
    3.8119  -13.5841    0.0000 N   0  0  0  0  0  0  0  0  0  0  0  0
    4.4939  -13.1143    0.0000 C   0  0  0  0  0  0  0  0  0  0  0  0
    4.2558  -12.3246    0.0000 C   0  0  0  0  0  0  0  0  0  0  0  0
    5.2724  -13.3873    0.0000 C   0  0  0  0  0  0  0  0  0  0  0  0
    5.4251  -14.1979    0.0000 O   0  0  0  0  0  0  0  0  0  0  0  0
    2.9886  -11.6091    0.0000 O   0  0  0  0  0  0  0  0  0  0  0  0
    3.3967  -10.9023    0.0000 C   0  0  0  0  0  0  0  0  0  0  0  0
    2.9820  -10.1842    0.0000 C   0  0  0  0  0  0  0  0  0  0  0  0
    3.3906   -9.4858    0.0000 C   0  0  0  0  0  0  0  0  0  0  0  0
    2.9788   -8.7666    0.0000 C   0  0  0  0  0  0  0  0  0  0  0  0
    2.1660   -8.7535    0.0000 C   0  0  0  0  0  0  0  0  0  0  0  0
    1.7354   -9.4791    0.0000 C   0  0  0  0  0  0  0  0  0  0  0  0
    2.1458  -10.1930    0.0000 C   0  0  0  0  0  0  0  0  0  0  0  0
    1.7536   -8.0391    0.0000 C   0  0  0  0  0  0  0  0  0  0  0  0
    0.9333   -8.0391    0.0000 C   0  0  0  0  0  0  0  0  0  0  0  0
    0.5198   -7.3228    0.0000 C   0  0  0  0  0  0  0  0  0  0  0  0
    0.9327   -6.6075    0.0000 C   0  0  0  0  0  0  0  0  0  0  0  0
    1.7582   -6.6075    0.0000 C   0  0  0  0  0  0  0  0  0  0  0  0
    2.1705   -5.8933    0.0000 C   0  0  0  0  0  0  0  0  0  0  0  0
    2.9955   -5.8933    0.0000 C   0  0  0  0  0  0  0  0  0  0  0  0
    3.4080   -6.6078    0.0000 C   0  0  0  0  0  0  0  0  0  0  0  0
  2  3  1  0
  3  4  1  0
  4  5  1  0
  5  6  1  0
  6  2  1  0
  5  7  1  1
  7  8  1  0
  2  9  1  6
  9 10  1  0
 10 11  1  0
 11 12  2  0
 12 13  1  0
 13 14  2  0
 14 15  1  0
 15 16  2  0
 16 11  1  0
 14 17  1  0
 17 18  1  0
 18 19  1  0
 19 20  1  0
 20 21  1  0
 21 22  1  0
 22 23  1  0
 23 24  1  0
M  END

> <chembl_id>
CHEMBL2441555

> <chembl_pref_name>
None

$$$$

     RDKit          2D

 23 26  0  0  0  0  0  0  0  0999 V2000
    0.8453    0.6165    0.0000 Br  0  0  0  0  0  0  0  0  0  0  0  0
   -2.9497    0.4400    0.0000 O   0  0  0  0  0  0  0  0  0  0  0  0
   -2.2352    1.6775    0.0000 N   0  0  0  0  0  0  0  0  0  0  0  0
   -1.5208    0.4400    0.0000 C   0  0  0  0  0  0  0  0  0  0  0  0
   -1.2084    1.2279    0.0000 C   0  0  0  0  0  0  0  0  0  0  0  0
   -0.7584    0.2445    0.0000 C   0  0  0  0  0  0  0  0  0  0  0  0
    0.0311    0.4840    0.0000 C   0  0  0  0  0  0  0  0  0  0  0  0
   -2.0319   -0.2054    0.0000 C   0  0  0  0  0  0  0  0  0  0  0  0
   -1.2470   -0.3570    0.0000 C   0  0  0  0  0  0  0  0  0  0  0  0
   -2.2352    0.8525    0.0000 C   0  0  0  0  0  0  0  0  0  0  0  0
   -1.7174    1.8772    0.0000 C   0  0  0  0  0  0  0  0  0  0  0  0
   -0.7338    1.9027    0.0000 C   0  0  0  0  0  0  0  0  0  0  0  0
   -0.2984   -0.4403    0.0000 C   0  0  0  0  0  0  0  0  0  0  0  0
   -2.9497    2.0900    0.0000 C   0  0  0  0  0  0  0  0  0  0  0  0
   -2.9497    2.9150    0.0000 C   0  0  0  0  0  0  0  0  0  0  0  0
   -3.6642    3.3275    0.0000 C   0  0  0  0  0  0  0  0  0  0  0  0
   -3.6642    1.6775    0.0000 C   0  0  0  0  0  0  0  0  0  0  0  0
   -2.2352    3.3275    0.0000 C   0  0  0  0  0  0  0  0  0  0  0  0
   -4.3787    2.9150    0.0000 C   0  0  0  0  0  0  0  0  0  0  0  0
   -4.3787    2.0900    0.0000 C   0  0  0  0  0  0  0  0  0  0  0  0
   -3.6642    4.1525    0.0000 C   0  0  0  0  0  0  0  0  0  0  0  0
   -2.2352    4.1525    0.0000 C   0  0  0  0  0  0  0  0  0  0  0  0
   -2.9497    4.5650    0.0000 C   0  0  0  0  0  0  0  0  0  0  0  0
  1  7  1  0
  2 10  2  0
  3 10  1  0
  3 14  1  0
  4  5  1  0
  4  7  1  0
  4  8  1  0
  4 10  1  0
  5  6  1  0
  5 11  1  0
  5 12  1  0
  6  7  1  0
  6  9  1  0
  6 13  1  0
  8  9  1  0
 14 15  1  0
 14 17  2  0
 15 16  1  0
 15 18  2  0
 16 19  1  0
 16 21  2  0
 17 20  1  0
 18 22  1  0
 19 20  2  0
 21 23  1  0
 22 23  2  0
M  END

> <chembl_id>
CHEMBL1406944

> <chembl_pref_name>
None

$$$$

     RDKit          2D

 17 18  0  0  0  0  0  0  0  0999 V2000
    7.3717  -17.6063    0.0000 C   0  0  0  0  0  0  0  0  0  0  0  0
    7.3717  -18.4314    0.0000 C   0  0  0  0  0  0  0  0  0  0  0  0
    8.0839  -18.8397    0.0000 C   0  0  0  0  0  0  0  0  0  0  0  0
    8.0839  -17.1895    0.0000 O   0  0  0  0  0  0  0  0  0  0  0  0
    8.7959  -17.6063    0.0000 C   0  0  0  0  0  0  0  0  0  0  0  0
    8.7943  -18.4295    0.0000 C   0  0  0  0  0  0  0  0  0  0  0  0
    9.5053  -18.8407    0.0000 C   0  0  0  0  0  0  0  0  0  0  0  0
   10.2185  -18.4299    0.0000 C   0  0  0  0  0  0  0  0  0  0  0  0
    9.5044  -17.1959    0.0000 C   0  0  0  0  0  0  0  0  0  0  0  0
   10.2158  -17.6010    0.0000 C   0  0  0  0  0  0  0  0  0  0  0  0
   10.9335  -18.8415    0.0000 C   0  0  0  0  0  0  0  0  0  0  0  0
   10.9345  -19.6666    0.0000 O   0  0  0  0  0  0  0  0  0  0  0  0
   11.6476  -18.4282    0.0000 C   0  0  0  0  0  0  0  0  0  0  0  0
    9.5046  -19.6658    0.0000 O   0  0  0  0  0  0  0  0  0  0  0  0
    6.9550  -16.8895    0.0000 C   0  0  0  0  0  0  0  0  0  0  0  0
    6.5716  -17.8188    0.0000 C   0  0  0  0  0  0  0  0  0  0  0  0
   10.9284  -17.1852    0.0000 O   0  0  0  0  0  0  0  0  0  0  0  0
  8 10  1  0
  9  5  1  0
  9 10  2  0
  3  6  1  0
  5  4  1  0
  8 11  1  0
  1  2  1  0
 11 12  2  0
  5  6  2  0
 11 13  1  0
  1  4  1  0
  7 14  1  0
  6  7  1  0
  1 15  1  0
  2  3  1  0
  1 16  1  0
  7  8  2  0
 10 17  1  0
M  END

> <chembl_id>
CHEMBL1240994

> <chembl_pref_name>
None

$$$$

     RDKit          2D

 16 15  0  0  0  0  0  0  0  0999 V2000
    3.5504   -1.9800    0.0000 N   0  0  0  0  0  0  0  0  0  0  0  0
    2.8359    0.9075    0.0000 C   0  0  0  0  0  0  0  0  0  0  0  0
    2.8359    2.5575    0.0000 C   0  0  0  0  0  0  0  0  0  0  0  0
    2.1214    1.3200    0.0000 C   0  0  0  0  0  0  0  0  0  0  0  0
    3.5504    1.3200    0.0000 C   0  0  0  0  0  0  0  0  0  0  0  0
    2.8359    0.0825    0.0000 C   0  0  0  0  0  0  0  0  0  0  0  0
    2.1214    2.1450    0.0000 C   0  0  0  0  0  0  0  0  0  0  0  0
    3.5504    2.1450    0.0000 C   0  0  0  0  0  0  0  0  0  0  0  0
    2.8359   -0.7425    0.0000 C   0  0  0  0  0  0  0  0  0  0  0  0
    2.8359   -1.5675    0.0000 C   0  0  0  0  0  0  0  0  0  0  0  0
    3.5504   -2.8050    0.0000 C   0  0  0  0  0  0  0  0  0  0  0  0
    4.2648   -1.5675    0.0000 C   0  0  0  0  0  0  0  0  0  0  0  0
    2.8359    3.3825    0.0000 C   0  0  0  0  0  0  0  0  0  0  0  0
    4.2648   -3.2175    0.0000 C   0  0  0  0  0  0  0  0  0  0  0  0
    4.9793   -1.9800    0.0000 C   0  0  0  0  0  0  0  0  0  0  0  0
    0.0000    0.0000    0.0000 Cl  0  0  0  0  0  0  0  0  0  0  0  0
  1 10  1  0
  1 11  1  0
  1 12  1  0
  2  4  2  0
  2  5  1  0
  2  6  1  0
  3  7  2  0
  3  8  1  0
  3 13  1  0
  4  7  1  0
  5  8  2  0
  6  9  3  0
  9 10  1  0
 11 14  1  0
 12 15  1  0
M  END

> <chembl_id>
CHEMBL1720656

> <chembl_pref_name>
None

$$$$

     RDKit          2D

 27 29  0  0  0  0  0  0  0  0999 V2000
   -1.5148    1.3902    0.0000 S   0  0  0  0  0  0  0  0  0  0  0  0
   -2.2685   -0.7492    0.0000 O   0  0  0  0  0  0  0  0  0  0  0  0
   -5.0871    2.6277    0.0000 O   0  0  0  0  0  0  0  0  0  0  0  0
   -5.8016    1.3902    0.0000 O   0  0  0  0  0  0  0  0  0  0  0  0
   -0.8003    0.1527    0.0000 N   0  0  0  0  0  0  0  0  0  0  0  0
   -2.2293    0.1527    0.0000 N   0  0  0  0  0  0  0  0  0  0  0  0
    1.3431   -1.0848    0.0000 N   0  0  0  0  0  0  0  0  0  0  0  0
   -1.5148    0.5652    0.0000 C   0  0  0  0  0  0  0  0  0  0  0  0
   -2.9437    0.5652    0.0000 C   0  0  0  0  0  0  0  0  0  0  0  0
   -0.8003   -0.6723    0.0000 C   0  0  0  0  0  0  0  0  0  0  0  0
   -0.0858    0.5652    0.0000 C   0  0  0  0  0  0  0  0  0  0  0  0
   -1.5148   -1.0848    0.0000 C   0  0  0  0  0  0  0  0  0  0  0  0
   -4.3727    1.3902    0.0000 C   0  0  0  0  0  0  0  0  0  0  0  0
    0.6286    0.1527    0.0000 C   0  0  0  0  0  0  0  0  0  0  0  0
   -3.6582    0.1527    0.0000 C   0  0  0  0  0  0  0  0  0  0  0  0
   -2.9437    1.3902    0.0000 C   0  0  0  0  0  0  0  0  0  0  0  0
   -4.3727    0.5652    0.0000 C   0  0  0  0  0  0  0  0  0  0  0  0
   -3.6582    1.8027    0.0000 C   0  0  0  0  0  0  0  0  0  0  0  0
   -5.0871    1.8027    0.0000 C   0  0  0  0  0  0  0  0  0  0  0  0
   -1.6010   -1.9052    0.0000 C   0  0  0  0  0  0  0  0  0  0  0  0
    0.6286   -0.6723    0.0000 C   0  0  0  0  0  0  0  0  0  0  0  0
    1.3431    0.5652    0.0000 C   0  0  0  0  0  0  0  0  0  0  0  0
   -2.8205   -1.3623    0.0000 C   0  0  0  0  0  0  0  0  0  0  0  0
   -2.4080   -2.0768    0.0000 C   0  0  0  0  0  0  0  0  0  0  0  0
    2.0576    0.1527    0.0000 C   0  0  0  0  0  0  0  0  0  0  0  0
    2.0576   -0.6723    0.0000 C   0  0  0  0  0  0  0  0  0  0  0  0
   -4.3727    3.0402    0.0000 C   0  0  0  0  0  0  0  0  0  0  0  0
  1  8  2  0
  2 12  1  0
  2 23  1  0
  3 19  1  0
  3 27  1  0
  4 19  2  0
  5  8  1  0
  5 10  1  0
  5 11  1  0
  6  8  1  0
  6  9  1  0
  7 21  2  0
  7 26  1  0
  9 15  2  0
  9 16  1  0
 10 12  1  0
 11 14  1  0
 12 20  2  0
 13 17  2  0
 13 18  1  0
 13 19  1  0
 14 21  1  0
 14 22  2  0
 15 17  1  0
 16 18  2  0
 20 24  1  0
 22 25  1  0
 23 24  2  0
 25 26  2  0
M  END

> <chembl_id>
CHEMBL1406934

> <chembl_pref_name>
None

$$$$

     RDKit          2D

 35 38  0  0  0  0  0  0  0  0999 V2000
   14.4631   -6.8635    0.0000 C   0  0  0  0  0  0  0  0  0  0  0  0
   15.1844   -7.2800    0.0000 C   0  0  0  0  0  0  0  0  0  0  0  0
   15.9057   -6.8635    0.0000 C   0  0  0  0  0  0  0  0  0  0  0  0
   16.6307   -8.1144    0.0000 O   0  0  0  0  0  0  0  0  0  0  0  0
   17.3519   -6.8652    0.0000 O   0  0  0  0  0  0  0  0  0  0  0  0
   16.6268   -7.2800    0.0000 C   0  0  0  0  0  0  0  0  0  0  0  0
   14.4622   -6.0312    0.0000 O   0  0  0  0  0  0  0  0  0  0  0  0
   13.7410   -7.2805    0.0000 O   0  0  0  0  0  0  0  0  0  0  0  0
    4.8965   -9.5660    0.0000 C   0  0  0  0  0  0  0  0  0  0  0  0
    5.5378   -8.8824    0.0000 C   0  0  0  0  0  0  0  0  0  0  0  0
    5.7010   -9.3409    0.0000 C   0  0  0  0  0  0  0  0  0  0  0  0
    6.2491   -9.1450    0.0000 C   0  0  0  0  0  0  0  0  0  0  0  0
    6.4536   -9.6437    0.0000 C   0  0  0  0  0  0  0  0  0  0  0  0
    6.9969   -8.9595    0.0000 C   0  0  0  0  0  0  0  0  0  0  0  0
    5.6983   -8.4927    0.0000 C   0  0  0  0  0  0  0  0  0  0  0  0
    6.2548   -7.8306    0.0000 C   0  0  0  0  0  0  0  0  0  0  0  0
    5.5333   -8.0870    0.0000 C   0  0  0  0  0  0  0  0  0  0  0  0
    7.0027   -8.1406    0.0000 C   0  0  0  0  0  0  0  0  0  0  0  0
    6.2496   -7.0038    0.0000 C   0  0  0  0  0  0  0  0  0  0  0  0
    7.6903   -7.6849    0.0000 N   0  0  0  0  0  0  0  0  0  0  0  0
    6.9615   -6.5867    0.0000 C   0  0  0  0  0  0  0  0  0  0  0  0
    7.6750   -6.9952    0.0000 C   0  0  0  0  0  0  0  0  0  0  0  0
    8.3864   -6.5789    0.0000 C   0  0  0  0  0  0  0  0  0  0  0  0
    8.3815   -5.7531    0.0000 C   0  0  0  0  0  0  0  0  0  0  0  0
    7.6595   -5.3454    0.0000 C   0  0  0  0  0  0  0  0  0  0  0  0
    6.9512   -5.7640    0.0000 C   0  0  0  0  0  0  0  0  0  0  0  0
    8.4289   -8.0525    0.0000 C   0  0  0  0  0  0  0  0  0  0  0  0
    9.1164   -7.5967    0.0000 C   0  0  0  0  0  0  0  0  0  0  0  0
    9.8550   -7.9643    0.0000 C   0  0  0  0  0  0  0  0  0  0  0  0
   10.5426   -7.5085    0.0000 N   0  0  0  0  0  0  0  0  0  0  0  0
   11.2797   -7.8796    0.0000 C   0  0  0  0  0  0  0  0  0  0  0  0
   11.9653   -7.4274    0.0000 C   0  0  0  0  0  0  0  0  0  0  0  0
   11.9187   -6.6034    0.0000 O   0  0  0  0  0  0  0  0  0  0  0  0
   11.1801   -6.2336    0.0000 C   0  0  0  0  0  0  0  0  0  0  0  0
   10.4883   -6.6878    0.0000 C   0  0  0  0  0  0  0  0  0  0  0  0
  6  4  1  0
  2  3  2  0
  6  5  2  0
  2  1  1  0
  1  8  2  0
  3  6  1  0
  1  7  1  0
  9 10  1  0
  9 11  1  0
 10 12  1  0
 11 13  1  0
 12 14  1  0
 13 14  1  0
 15 16  1  0
 11 15  1  0
 10 17  1  0
 14 18  1  0
 18 16  1  0
 16 17  1  0
 16 19  1  0
 18 20  1  0
 19 21  1  0
 21 22  2  0
 22 23  1  0
 23 24  2  0
 24 25  1  0
 25 26  2  0
 26 21  1  0
 20 27  1  0
 27 28  1  0
 28 29  1  0
 29 30  1  0
 30 31  1  0
 30 35  1  0
 31 32  1  0
 32 33  1  0
 33 34  1  0
 34 35  1  0
M  END

> <chembl_id>
CHEMBL2430848

> <chembl_pref_name>
None

$$$$

     RDKit          2D

 35 38  0  0  0  0  0  0  0  0999 V2000
    2.5737    5.7404    0.0000 S   0  0  0  0  0  0  0  0  0  0  0  0
   -1.7133   -1.5276    0.0000 O   0  0  0  0  0  0  0  0  0  0  0  0
    0.3882    2.6555    0.0000 O   0  0  0  0  0  0  0  0  0  0  0  0
    2.0028    6.3359    0.0000 O   0  0  0  0  0  0  0  0  0  0  0  0
    3.1447    5.1448    0.0000 O   0  0  0  0  0  0  0  0  0  0  0  0
   -0.6007    3.6871    0.0000 O   0  0  0  0  0  0  0  0  0  0  0  0
   -0.5434    0.6534    0.0000 N   0  0  0  0  0  0  0  0  0  0  0  0
   -0.4987   -0.7749    0.0000 N   0  0  0  0  0  0  0  0  0  0  0  0
    0.6925    0.1488    0.0000 N   0  0  0  0  0  0  0  0  0  0  0  0
    0.7530    0.9715    0.0000 N   0  0  0  0  0  0  0  0  0  0  0  0
    3.1693    6.3113    0.0000 N   0  0  0  0  0  0  0  0  0  0  0  0
   -0.1088   -0.0479    0.0000 C   0  0  0  0  0  0  0  0  0  0  0  0
   -1.3680    0.6276    0.0000 C   0  0  0  0  0  0  0  0  0  0  0  0
   -1.7580   -0.0994    0.0000 C   0  0  0  0  0  0  0  0  0  0  0  0
   -0.0107    1.2834    0.0000 C   0  0  0  0  0  0  0  0  0  0  0  0
   -1.3233   -0.8006    0.0000 C   0  0  0  0  0  0  0  0  0  0  0  0
   -1.8026    1.3288    0.0000 C   0  0  0  0  0  0  0  0  0  0  0  0
   -2.5826   -0.1252    0.0000 C   0  0  0  0  0  0  0  0  0  0  0  0
   -0.0641   -1.4761    0.0000 C   0  0  0  0  0  0  0  0  0  0  0  0
   -0.2074    2.0846    0.0000 C   0  0  0  0  0  0  0  0  0  0  0  0
   -2.6272    1.3031    0.0000 C   0  0  0  0  0  0  0  0  0  0  0  0
   -3.0172    0.5761    0.0000 C   0  0  0  0  0  0  0  0  0  0  0  0
    1.9782    5.1695    0.0000 C   0  0  0  0  0  0  0  0  0  0  0  0
    0.1915    3.4568    0.0000 C   0  0  0  0  0  0  0  0  0  0  0  0
    0.7871    4.0277    0.0000 C   0  0  0  0  0  0  0  0  0  0  0  0
    0.7605   -1.4504    0.0000 C   0  0  0  0  0  0  0  0  0  0  0  0
    2.1748    4.3683    0.0000 C   0  0  0  0  0  0  0  0  0  0  0  0
    1.1860    5.3998    0.0000 C   0  0  0  0  0  0  0  0  0  0  0  0
    1.5793    3.7974    0.0000 C   0  0  0  0  0  0  0  0  0  0  0  0
    0.5904    4.8289    0.0000 C   0  0  0  0  0  0  0  0  0  0  0  0
    1.1951   -2.1516    0.0000 C   0  0  0  0  0  0  0  0  0  0  0  0
    2.9727    7.1125    0.0000 C   0  0  0  0  0  0  0  0  0  0  0  0
    3.9615    6.0810    0.0000 C   0  0  0  0  0  0  0  0  0  0  0  0
    0.8051   -2.8786    0.0000 C   0  0  0  0  0  0  0  0  0  0  0  0
    2.0197   -2.1258    0.0000 C   0  0  0  0  0  0  0  0  0  0  0  0
  1  4  2  0
  1  5  2  0
  1 11  1  0
  1 23  1  0
  2 16  2  0
  3 20  1  0
  3 24  1  0
  6 24  2  0
  7 12  1  0
  7 13  1  0
  7 15  1  0
  8 12  1  0
  8 16  1  0
  8 19  1  0
  9 10  1  0
  9 12  2  0
 10 15  2  0
 11 32  1  0
 11 33  1  0
 13 14  1  0
 13 17  2  0
 14 16  1  0
 14 18  2  0
 15 20  1  0
 17 21  1  0
 18 22  1  0
 19 26  1  0
 21 22  2  0
 23 27  2  0
 23 28  1  0
 24 25  1  0
 25 29  2  0
 25 30  1  0
 26 31  1  0
 27 29  1  0
 28 30  2  0
 31 34  1  0
 31 35  1  0
M  END

> <chembl_id>
CHEMBL1400694

> <chembl_pref_name>
None

$$$$

     RDKit          2D

 26 27  0  0  0  0  0  0  0  0999 V2000
   12.5781  -27.3624    0.0000 N   0  0  0  0  0  0  0  0  0  0  0  0
   13.2952  -26.9508    0.0000 C   0  0  0  0  0  0  0  0  0  0  0  0
   14.0076  -28.1901    0.0000 O   0  0  0  0  0  0  0  0  0  0  0  0
   14.0076  -27.3624    0.0000 C   0  0  0  0  0  0  0  0  0  0  0  0
   13.2952  -26.1232    0.0000 C   0  0  0  0  0  0  0  0  0  0  0  0
   14.0076  -24.8840    0.0000 C   0  0  0  0  0  0  0  0  0  0  0  0
   14.0076  -25.7117    0.0000 C   0  0  0  0  0  0  0  0  0  0  0  0
   14.7246  -26.1232    0.0000 C   0  0  0  0  0  0  0  0  0  0  0  0
   15.4417  -25.7117    0.0000 C   0  0  0  0  0  0  0  0  0  0  0  0
   15.4417  -24.8840    0.0000 C   0  0  0  0  0  0  0  0  0  0  0  0
   14.7246  -24.4725    0.0000 C   0  0  0  0  0  0  0  0  0  0  0  0
   14.7246  -26.9508    0.0000 O   0  0  0  0  0  0  0  0  0  0  0  0
    9.7255  -27.3569    0.0000 C   0  0  0  0  0  0  0  0  0  0  0  0
   10.4425  -26.9409    0.0000 C   0  0  0  0  0  0  0  0  0  0  0  0
   11.1549  -27.3569    0.0000 C   0  0  0  0  0  0  0  0  0  0  0  0
   11.8674  -26.9409    0.0000 C   0  0  0  0  0  0  0  0  0  0  0  0
    9.0176  -26.9409    0.0000 O   0  0  0  0  0  0  0  0  0  0  0  0
    9.7255  -28.1800    0.0000 O   0  0  0  0  0  0  0  0  0  0  0  0
   11.8674  -26.1178    0.0000 O   0  0  0  0  0  0  0  0  0  0  0  0
   15.4364  -27.3641    0.0000 C   0  0  0  0  0  0  0  0  0  0  0  0
   16.1503  -26.9545    0.0000 C   0  0  0  0  0  0  0  0  0  0  0  0
   16.8589  -27.3690    0.0000 C   0  0  0  0  0  0  0  0  0  0  0  0
   17.5725  -26.9600    0.0000 C   0  0  0  0  0  0  0  0  0  0  0  0
   17.5750  -26.1360    0.0000 C   0  0  0  0  0  0  0  0  0  0  0  0
   16.8582  -25.7229    0.0000 C   0  0  0  0  0  0  0  0  0  0  0  0
   16.1477  -26.1343    0.0000 C   0  0  0  0  0  0  0  0  0  0  0  0
  4 12  1  0
  1  2  1  0
  2  4  1  0
  4  3  2  0
  2  5  1  1
  5  7  1  0
 13 14  1  0
 14 15  2  0
 15 16  1  0
 13 17  1  0
 13 18  2  0
 16 19  2  0
 16  1  1  0
  6  7  2  0
 12 20  1  0
  7  8  1  0
 20 21  1  0
  8  9  2  0
 21 22  2  0
  9 10  1  0
 22 23  1  0
 10 11  2  0
 23 24  2  0
 11  6  1  0
 24 25  1  0
 25 26  2  0
 26 21  1  0
M  END

> <chembl_id>
CHEMBL1090699

> <chembl_pref_name>
None

$$$$

     RDKit          2D

 18 20  0  0  0  0  0  0  0  0999 V2000
   -0.0250   -1.7375    0.0000 C   0  0  0  0  0  0  0  0  0  0  0  0
   -0.7833   -2.8667    0.0000 O   0  0  0  0  0  0  0  0  0  0  0  0
   -0.7833   -0.7250    0.0000 C   0  0  0  0  0  0  0  0  0  0  0  0
   -2.0208   -2.4542    0.0000 C   0  0  0  0  0  0  0  0  0  0  0  0
   -2.0208   -1.1000    0.0000 C   0  0  0  0  0  0  0  0  0  0  0  0
    1.2792   -1.7375    0.0000 C   0  0  0  0  0  0  0  0  0  0  0  0
    1.9167   -0.5375    0.0000 C   0  0  0  0  0  0  0  0  0  0  0  0
    1.2417    0.5833    0.0000 C   0  0  0  0  0  0  0  0  0  0  0  0
    3.2542   -0.5542    0.0000 C   0  0  0  0  0  0  0  0  0  0  0  0
    3.2542    1.7125    0.0000 C   0  0  0  0  0  0  0  0  0  0  0  0
    2.0292   -2.8292    0.0000 O   0  0  0  0  0  0  0  0  0  0  0  0
    3.8750    0.7000    0.0000 C   0  0  0  0  0  0  0  0  0  0  0  0
    1.8292    1.7125    0.0000 C   0  0  0  0  0  0  0  0  0  0  0  0
    3.8000    2.9875    0.0000 Cl  0  0  0  0  0  0  0  0  0  0  0  0
   -3.1833   -3.1292    0.0000 C   0  0  0  0  0  0  0  0  0  0  0  0
   -3.1833   -0.4625    0.0000 C   0  0  0  0  0  0  0  0  0  0  0  0
   -4.3458   -1.1000    0.0000 C   0  0  0  0  0  0  0  0  0  0  0  0
   -4.3458   -2.4542    0.0000 C   0  0  0  0  0  0  0  0  0  0  0  0
  2  1  1  0
  3  1  2  0
  4  2  1  0
  5  3  1  0
  6  1  1  0
  7  6  1  0
  8  7  1  0
  9  7  2  0
 10 12  2  0
 11  6  1  0
 12  9  1  0
 13  8  2  0
 14 10  1  0
 15  4  1  0
 16  5  1  0
 17 16  2  0
 18 15  2  0
  5  4  2  0
 13 10  1  0
 17 18  1  0
M  END

> <chembl_id>
CHEMBL2104094

> <chembl_pref_name>
CLORIDAROL

$$$$

     RDKit          2D

 25 26  0  0  0  0  0  0  0  0999 V2000
    0.6749    1.2704    0.0000 S   0  0  0  0  0  0  0  0  0  0  0  0
    1.4999    1.2704    0.0000 O   0  0  0  0  0  0  0  0  0  0  0  0
   -0.1501    1.2704    0.0000 O   0  0  0  0  0  0  0  0  0  0  0  0
    2.1039   -1.2046    0.0000 O   0  0  0  0  0  0  0  0  0  0  0  0
    0.6749    2.0954    0.0000 N   0  0  0  0  0  0  0  0  0  0  0  0
    0.6749   -2.0296    0.0000 N   0  0  0  0  0  0  0  0  0  0  0  0
    1.3424   -2.5145    0.0000 N   0  0  0  0  0  0  0  0  0  0  0  0
    1.0874   -3.2991    0.0000 N   0  0  0  0  0  0  0  0  0  0  0  0
    0.2624   -3.2991    0.0000 N   0  0  0  0  0  0  0  0  0  0  0  0
    0.6749    0.4454    0.0000 C   0  0  0  0  0  0  0  0  0  0  0  0
    0.6749   -1.2046    0.0000 C   0  0  0  0  0  0  0  0  0  0  0  0
    1.3894   -0.7921    0.0000 C   0  0  0  0  0  0  0  0  0  0  0  0
    1.3894    0.0329    0.0000 C   0  0  0  0  0  0  0  0  0  0  0  0
   -0.0395    0.0329    0.0000 C   0  0  0  0  0  0  0  0  0  0  0  0
   -0.0395   -0.7921    0.0000 C   0  0  0  0  0  0  0  0  0  0  0  0
    1.3894    2.5079    0.0000 C   0  0  0  0  0  0  0  0  0  0  0  0
   -0.0395    2.5079    0.0000 C   0  0  0  0  0  0  0  0  0  0  0  0
    0.0075   -2.5145    0.0000 C   0  0  0  0  0  0  0  0  0  0  0  0
    1.3894    3.3329    0.0000 C   0  0  0  0  0  0  0  0  0  0  0  0
   -0.0395    3.3329    0.0000 C   0  0  0  0  0  0  0  0  0  0  0  0
    2.8183   -0.7921    0.0000 C   0  0  0  0  0  0  0  0  0  0  0  0
    1.3894    4.1579    0.0000 C   0  0  0  0  0  0  0  0  0  0  0  0
   -0.0395    4.1579    0.0000 C   0  0  0  0  0  0  0  0  0  0  0  0
    1.3894    4.9829    0.0000 C   0  0  0  0  0  0  0  0  0  0  0  0
   -0.0395    4.9829    0.0000 C   0  0  0  0  0  0  0  0  0  0  0  0
  1  2  2  0
  1  3  2  0
  1  5  1  0
  1 10  1  0
  4 12  1  0
  4 21  1  0
  5 16  1  0
  5 17  1  0
  6  7  1  0
  6 11  1  0
  6 18  1  0
  7  8  2  0
  8  9  1  0
  9 18  2  0
 10 13  1  0
 10 14  2  0
 11 12  1  0
 11 15  2  0
 12 13  2  0
 14 15  1  0
 16 19  1  0
 17 20  1  0
 19 22  3  0
 20 23  3  0
 22 24  1  0
 23 25  1  0
M  END

> <chembl_id>
CHEMBL1340294

> <chembl_pref_name>
None

$$$$

     RDKit          2D

 42 47  0  0  0  0  0  0  0  0999 V2000
    4.6075   -1.2836    0.0000 N   0  0  0  0  0  0  0  0  0  0  0  0
    5.0166   -2.0000    0.0000 C   0  0  0  0  0  0  0  0  0  0  0  0
    5.8427   -2.0032    0.0000 C   0  0  0  0  0  0  0  0  0  0  0  0
    6.2517   -2.7197    0.0000 C   0  0  0  0  0  0  0  0  0  0  0  0
    5.8346   -3.4327    0.0000 C   0  0  0  0  0  0  0  0  0  0  0  0
    5.0085   -3.4295    0.0000 C   0  0  0  0  0  0  0  0  0  0  0  0
    4.5994   -2.7131    0.0000 C   0  0  0  0  0  0  0  0  0  0  0  0
    6.2437   -4.1492    0.0000 C   0  0  0  0  0  0  0  0  0  0  0  0
    5.9062   -4.9000    0.0000 N   0  0  0  0  0  0  0  0  0  0  0  0
    6.5149   -5.4560    0.0000 C   0  0  0  0  0  0  0  0  0  0  0  0
    7.2312   -5.0469    0.0000 C   0  0  0  0  0  0  0  0  0  0  0  0
    7.0618   -4.2402    0.0000 N   0  0  0  0  0  0  0  0  0  0  0  0
    6.5116   -6.2821    0.0000 C   0  0  0  0  0  0  0  0  0  0  0  0
    7.2247   -6.6992    0.0000 C   0  0  0  0  0  0  0  0  0  0  0  0
    7.9411   -6.2901    0.0000 C   0  0  0  0  0  0  0  0  0  0  0  0
    7.9444   -5.4640    0.0000 C   0  0  0  0  0  0  0  0  0  0  0  0
   -2.6263   -0.1625    0.0000 C   0  0  0  0  0  0  0  0  0  0  0  0
   -2.6274   -0.9897    0.0000 C   0  0  0  0  0  0  0  0  0  0  0  0
   -1.9126   -1.4026    0.0000 C   0  0  0  0  0  0  0  0  0  0  0  0
   -1.9144    0.2503    0.0000 C   0  0  0  0  0  0  0  0  0  0  0  0
   -1.1991   -0.1588    0.0000 C   0  0  0  0  0  0  0  0  0  0  0  0
   -1.1989   -0.9898    0.0000 C   0  0  0  0  0  0  0  0  0  0  0  0
   -0.4085   -1.2464    0.0000 N   0  0  0  0  0  0  0  0  0  0  0  0
    0.0798   -0.5740    0.0000 C   0  0  0  0  0  0  0  0  0  0  0  0
   -0.4089    0.0982    0.0000 N   0  0  0  0  0  0  0  0  0  0  0  0
    0.9015   -0.5722    0.0000 C   0  0  0  0  0  0  0  0  0  0  0  0
    1.3136   -1.2881    0.0000 C   0  0  0  0  0  0  0  0  0  0  0  0
    2.1377   -1.2882    0.0000 C   0  0  0  0  0  0  0  0  0  0  0  0
    2.5508   -0.5731    0.0000 C   0  0  0  0  0  0  0  0  0  0  0  0
    2.1336    0.1436    0.0000 C   0  0  0  0  0  0  0  0  0  0  0  0
    1.3109    0.1401    0.0000 C   0  0  0  0  0  0  0  0  0  0  0  0
    3.3757   -0.5717    0.0000 N   0  0  0  0  0  0  0  0  0  0  0  0
   -3.3407    0.2499    0.0000 C   0  0  0  0  0  0  0  0  0  0  0  0
   -3.3409    1.0748    0.0000 F   0  0  0  0  0  0  0  0  0  0  0  0
   -4.0551   -0.1628    0.0000 F   0  0  0  0  0  0  0  0  0  0  0  0
   -4.0581    0.6624    0.0000 F   0  0  0  0  0  0  0  0  0  0  0  0
    3.7894   -1.2854    0.0000 C   0  0  0  0  0  0  0  0  0  0  0  0
    3.3782   -2.0004    0.0000 O   0  0  0  0  0  0  0  0  0  0  0  0
    7.2204   -7.5241    0.0000 C   0  0  0  0  0  0  0  0  0  0  0  0
    6.5039   -7.9329    0.0000 F   0  0  0  0  0  0  0  0  0  0  0  0
    7.9327   -7.9403    0.0000 F   0  0  0  0  0  0  0  0  0  0  0  0
    7.2161   -8.3451    0.0000 F   0  0  0  0  0  0  0  0  0  0  0  0
  8  9  2  0
  9 10  1  0
 10 11  1  0
 11 12  1  0
  8 12  1  0
 13 14  1  0
 14 15  2  0
 15 16  1  0
 11 16  2  0
 10 13  2  0
  5  8  1  0
  1  2  1  0
 20 17  1  0
 21 22  1  0
 26 27  2  0
 27 28  1  0
 18 19  1  0
 28 29  2  0
 19 22  2  0
 29 30  1  0
 17 18  2  0
 30 31  2  0
 31 26  1  0
 24 26  1  0
 21 20  2  0
 29 32  1  0
 22 23  1  0
 17 33  1  0
 23 24  1  0
 33 34  1  0
 24 25  2  0
 33 35  1  0
 25 21  1  0
 33 36  1  0
  2  3  1  0
 32 37  1  0
 37  1  1  0
  3  4  2  0
 37 38  2  0
  4  5  1  0
 14 39  1  0
  5  6  2  0
 39 40  1  0
  6  7  1  0
 39 41  1  0
  2  7  2  0
 39 42  1  0
M  END

> <chembl_id>
CHEMBL1090692

> <chembl_pref_name>
None

$$$$

     RDKit          2D

 32 34  0  0  0  0  0  0  0  0999 V2000
    0.9515    1.6335    0.0000 O   0  0  0  0  0  0  0  0  0  0  0  0
    2.3805   -0.8415    0.0000 O   0  0  0  0  0  0  0  0  0  0  0  0
    2.3805    0.8085    0.0000 O   0  0  0  0  0  0  0  0  0  0  0  0
   -1.9064    0.8085    0.0000 O   0  0  0  0  0  0  0  0  0  0  0  0
    0.9515   -1.6665    0.0000 O   0  0  0  0  0  0  0  0  0  0  0  0
   -0.4774    0.8085    0.0000 O   0  0  0  0  0  0  0  0  0  0  0  0
    0.2370   -2.9040    0.0000 O   0  0  0  0  0  0  0  0  0  0  0  0
   -3.2883   -3.3889    0.0000 O   0  0  0  0  0  0  0  0  0  0  0  0
   -1.9064   -1.6665    0.0000 N   0  0  0  0  0  0  0  0  0  0  0  0
   -0.4774   -0.8415    0.0000 C   0  0  0  0  0  0  0  0  0  0  0  0
    0.2370   -0.4290    0.0000 C   0  0  0  0  0  0  0  0  0  0  0  0
   -1.1919   -0.4290    0.0000 C   0  0  0  0  0  0  0  0  0  0  0  0
   -0.4774   -1.6665    0.0000 C   0  0  0  0  0  0  0  0  0  0  0  0
   -1.9064   -0.8415    0.0000 C   0  0  0  0  0  0  0  0  0  0  0  0
   -1.1919   -2.0790    0.0000 C   0  0  0  0  0  0  0  0  0  0  0  0
    0.2370    0.3960    0.0000 C   0  0  0  0  0  0  0  0  0  0  0  0
    0.9515   -0.8415    0.0000 C   0  0  0  0  0  0  0  0  0  0  0  0
    0.9515    0.8085    0.0000 C   0  0  0  0  0  0  0  0  0  0  0  0
    1.6660   -0.4290    0.0000 C   0  0  0  0  0  0  0  0  0  0  0  0
    1.6660    0.3960    0.0000 C   0  0  0  0  0  0  0  0  0  0  0  0
   -1.1919    0.3960    0.0000 C   0  0  0  0  0  0  0  0  0  0  0  0
    0.2370   -2.0790    0.0000 C   0  0  0  0  0  0  0  0  0  0  0  0
   -2.6208   -2.0790    0.0000 C   0  0  0  0  0  0  0  0  0  0  0  0
   -2.6208   -2.9040    0.0000 C   0  0  0  0  0  0  0  0  0  0  0  0
   -1.9534   -3.3889    0.0000 C   0  0  0  0  0  0  0  0  0  0  0  0
    1.6660    2.0460    0.0000 C   0  0  0  0  0  0  0  0  0  0  0  0
    3.0949   -0.4290    0.0000 C   0  0  0  0  0  0  0  0  0  0  0  0
    3.0949    0.3960    0.0000 C   0  0  0  0  0  0  0  0  0  0  0  0
   -1.9064    1.6335    0.0000 C   0  0  0  0  0  0  0  0  0  0  0  0
    1.6660   -2.0790    0.0000 C   0  0  0  0  0  0  0  0  0  0  0  0
   -3.0333   -4.1736    0.0000 C   0  0  0  0  0  0  0  0  0  0  0  0
   -2.2083   -4.1736    0.0000 C   0  0  0  0  0  0  0  0  0  0  0  0
  1 18  1  0
  1 26  1  0
  2 19  1  0
  2 27  1  0
  3 20  1  0
  3 28  1  0
  4 21  1  0
  4 29  1  0
  5 22  1  0
  5 30  1  0
  6 21  2  0
  7 22  2  0
  8 24  1  0
  8 31  1  0
  9 14  1  0
  9 15  1  0
  9 23  1  0
 10 11  1  0
 10 12  1  0
 10 13  1  0
 11 16  2  0
 11 17  1  0
 12 14  2  0
 12 21  1  0
 13 15  2  0
 13 22  1  0
 16 18  1  0
 17 19  2  0
 18 20  2  0
 19 20  1  0
 23 24  1  0
 24 25  1  0
 25 32  1  0
 31 32  1  0
M  END

> <chembl_id>
CHEMBL1540684

> <chembl_pref_name>
None

$$$$

     RDKit          2D

 49 53  0  0  0  0  0  0  0  0999 V2000
    8.8296  -11.9539    0.0000 C   0  0  0  0  0  0  0  0  0  0  0  0
    9.2387  -12.6730    0.0000 C   0  0  0  0  0  0  0  0  0  0  0  0
   10.0641  -12.6774    0.0000 C   0  0  0  0  0  0  0  0  0  0  0  0
   10.4815  -11.9633    0.0000 C   0  0  0  0  0  0  0  0  0  0  0  0
   10.0674  -11.2433    0.0000 C   0  0  0  0  0  0  0  0  0  0  0  0
    9.2433  -11.2426    0.0000 C   0  0  0  0  0  0  0  0  0  0  0  0
    8.0046  -11.9499    0.0000 C   0  0  0  0  0  0  0  0  0  0  0  0
    7.5956  -11.2334    0.0000 O   0  0  0  0  0  0  0  0  0  0  0  0
    7.5887  -12.6624    0.0000 C   0  0  0  0  0  0  0  0  0  0  0  0
    6.7637  -12.6584    0.0000 O   0  0  0  0  0  0  0  0  0  0  0  0
    7.9978  -13.3788    0.0000 O   0  0  0  0  0  0  0  0  0  0  0  0
   11.3065  -11.9661    0.0000 O   0  0  0  0  0  0  0  0  0  0  0  0
   11.7165  -12.6821    0.0000 C   0  0  0  0  0  0  0  0  0  0  0  0
   12.5415  -12.6849    0.0000 C   0  0  0  0  0  0  0  0  0  0  0  0
   12.9490  -13.4017    0.0000 C   0  0  0  0  0  0  0  0  0  0  0  0
   13.7732  -13.4049    0.0000 C   0  0  0  0  0  0  0  0  0  0  0  0
   14.1890  -12.6914    0.0000 C   0  0  0  0  0  0  0  0  0  0  0  0
   13.7746  -11.9731    0.0000 C   0  0  0  0  0  0  0  0  0  0  0  0
   12.9517  -11.9734    0.0000 C   0  0  0  0  0  0  0  0  0  0  0  0
   15.0140  -12.6931    0.0000 C   0  0  0  0  0  0  0  0  0  0  0  0
   15.4281  -11.9796    0.0000 O   0  0  0  0  0  0  0  0  0  0  0  0
   16.2531  -11.9813    0.0000 C   0  0  0  0  0  0  0  0  0  0  0  0
   16.6620  -12.6966    0.0000 C   0  0  0  0  0  0  0  0  0  0  0  0
   17.4863  -12.6987    0.0000 C   0  0  0  0  0  0  0  0  0  0  0  0
   17.9011  -11.9846    0.0000 C   0  0  0  0  0  0  0  0  0  0  0  0
   17.4857  -11.2669    0.0000 C   0  0  0  0  0  0  0  0  0  0  0  0
   16.6629  -11.2683    0.0000 C   0  0  0  0  0  0  0  0  0  0  0  0
   18.7261  -11.9853    0.0000 C   0  0  0  0  0  0  0  0  0  0  0  0
   19.1380  -12.7001    0.0000 C   0  0  0  0  0  0  0  0  0  0  0  0
   19.1392  -11.2712    0.0000 O   0  0  0  0  0  0  0  0  0  0  0  0
   18.7249  -13.4142    0.0000 O   0  0  0  0  0  0  0  0  0  0  0  0
   19.9630  -12.7008    0.0000 O   0  0  0  0  0  0  0  0  0  0  0  0
   12.5327  -14.1140    0.0000 C   0  0  0  0  0  0  0  0  0  0  0  0
   11.7077  -14.1096    0.0000 O   0  0  0  0  0  0  0  0  0  0  0  0
   12.9414  -14.8306    0.0000 N   0  0  0  0  0  0  0  0  0  0  0  0
   13.7664  -14.8350    0.0000 C   0  0  0  0  0  0  0  0  0  0  0  0
   14.1726  -15.5524    0.0000 C   0  0  0  0  0  0  0  0  0  0  0  0
   14.9968  -15.5571    0.0000 C   0  0  0  0  0  0  0  0  0  0  0  0
   15.4140  -14.8443    0.0000 C   0  0  0  0  0  0  0  0  0  0  0  0
   15.0008  -14.1253    0.0000 C   0  0  0  0  0  0  0  0  0  0  0  0
   14.1780  -14.1241    0.0000 C   0  0  0  0  0  0  0  0  0  0  0  0
   16.2390  -14.8476    0.0000 O   0  0  0  0  0  0  0  0  0  0  0  0
   16.6486  -15.5637    0.0000 C   0  0  0  0  0  0  0  0  0  0  0  0
   16.2321  -16.2757    0.0000 C   0  0  0  0  0  0  0  0  0  0  0  0
   16.6411  -16.9913    0.0000 C   0  0  0  0  0  0  0  0  0  0  0  0
   17.4670  -16.9951    0.0000 C   0  0  0  0  0  0  0  0  0  0  0  0
   17.8822  -16.2772    0.0000 C   0  0  0  0  0  0  0  0  0  0  0  0
   17.4708  -15.5645    0.0000 C   0  0  0  0  0  0  0  0  0  0  0  0
   17.8776  -17.7106    0.0000 F   0  0  0  0  0  0  0  0  0  0  0  0
 23 24  1  0
  4 12  1  0
 24 25  2  0
  6  1  1  0
 25 26  1  0
 12 13  1  0
 26 27  2  0
 27 22  1  0
  1  2  2  0
 25 28  1  0
 13 14  1  0
 28 29  1  0
  1  7  1  0
 28 30  2  0
 14 15  2  0
 29 31  2  0
  3  4  2  0
 29 32  1  0
 15 16  1  0
 15 33  1  0
  7  8  2  0
 33 34  2  0
 16 17  2  0
 33 35  1  0
 35 36  1  0
 17 18  1  0
 36 37  2  0
  7  9  1  0
 37 38  1  0
 18 19  2  0
 38 39  2  0
 19 14  1  0
 39 40  1  0
  4  5  1  0
 40 41  2  0
 41 36  1  0
 17 20  1  0
 39 42  1  0
  9 10  1  0
 42 43  1  0
 20 21  1  0
 43 44  2  0
  2  3  1  0
 44 45  1  0
 21 22  1  0
 45 46  2  0
  9 11  2  0
 46 47  1  0
 22 23  2  0
 47 48  2  0
 48 43  1  0
  5  6  2  0
 46 49  1  0
M  END

> <chembl_id>
CHEMBL1240794

> <chembl_pref_name>
None

$$$$

     RDKit          2D

 40 43  0  0  0  0  0  0  0  0999 V2000
   -3.0348    2.0709    0.0000 C   0  0  0  0  0  0  0  0  0  0  0  0
   -3.0359    1.2435    0.0000 C   0  0  0  0  0  0  0  0  0  0  0  0
   -2.3211    0.8306    0.0000 C   0  0  0  0  0  0  0  0  0  0  0  0
   -1.6047    1.2440    0.0000 C   0  0  0  0  0  0  0  0  0  0  0  0
   -1.6075    2.0745    0.0000 C   0  0  0  0  0  0  0  0  0  0  0  0
   -2.3229    2.4836    0.0000 C   0  0  0  0  0  0  0  0  0  0  0  0
   -2.3194    0.0078    0.0000 C   0  0  0  0  0  0  0  0  0  0  0  0
   -3.0356   -0.4039    0.0000 C   0  0  0  0  0  0  0  0  0  0  0  0
   -3.0362   -1.2281    0.0000 C   0  0  0  0  0  0  0  0  0  0  0  0
   -2.3213   -1.6416    0.0000 N   0  0  0  0  0  0  0  0  0  0  0  0
   -1.6043   -1.2249    0.0000 C   0  0  0  0  0  0  0  0  0  0  0  0
   -1.6073   -0.4020    0.0000 C   0  0  0  0  0  0  0  0  0  0  0  0
   -0.8939    0.0123    0.0000 N   0  0  0  0  0  0  0  0  0  0  0  0
   -0.1784   -0.3984    0.0000 C   0  0  0  0  0  0  0  0  0  0  0  0
    0.5351    0.0159    0.0000 C   0  0  0  0  0  0  0  0  0  0  0  0
    1.2540    0.4221    0.0000 C   0  0  0  0  0  0  0  0  0  0  0  0
    1.9602   -0.0003    0.0000 C   0  0  0  0  0  0  0  0  0  0  0  0
    2.6789    0.4034    0.0000 C   0  0  0  0  0  0  0  0  0  0  0  0
    2.6887    1.2292    0.0000 C   0  0  0  0  0  0  0  0  0  0  0  0
    1.9739    1.6497    0.0000 C   0  0  0  0  0  0  0  0  0  0  0  0
    1.2582    1.2436    0.0000 C   0  0  0  0  0  0  0  0  0  0  0  0
    1.9804    2.4747    0.0000 C   0  0  0  0  0  0  0  0  0  0  0  0
    1.9850    3.2987    0.0000 F   0  0  0  0  0  0  0  0  0  0  0  0
    2.8054    2.4691    0.0000 F   0  0  0  0  0  0  0  0  0  0  0  0
    1.1554    2.4811    0.0000 F   0  0  0  0  0  0  0  0  0  0  0  0
    3.3884   -0.0176    0.0000 C   0  0  0  0  0  0  0  0  0  0  0  0
    4.0904   -0.4444    0.0000 F   0  0  0  0  0  0  0  0  0  0  0  0
    3.8132    0.6897    0.0000 F   0  0  0  0  0  0  0  0  0  0  0  0
    2.9665   -0.7265    0.0000 F   0  0  0  0  0  0  0  0  0  0  0  0
   -0.1763   -1.2234    0.0000 O   0  0  0  0  0  0  0  0  0  0  0  0
   -0.8959    0.8373    0.0000 C   0  0  0  0  0  0  0  0  0  0  0  0
    0.1250    0.7317    0.0000 C   0  0  0  0  0  0  0  0  0  0  0  0
    0.9445   -0.7004    0.0000 C   0  0  0  0  0  0  0  0  0  0  0  0
   -3.7493    0.8316    0.0000 C   0  0  0  0  0  0  0  0  0  0  0  0
   -3.7510   -1.6401    0.0000 N   0  0  0  0  0  0  0  0  0  0  0  0
   -5.1810   -2.4629    0.0000 O   0  0  0  0  0  0  0  0  0  0  0  0
   -4.4654   -2.8754    0.0000 C   0  0  0  0  0  0  0  0  0  0  0  0
   -3.7544   -2.4643    0.0000 C   0  0  0  0  0  0  0  0  0  0  0  0
   -4.4682   -1.2264    0.0000 C   0  0  0  0  0  0  0  0  0  0  0  0
   -5.1855   -1.6392    0.0000 C   0  0  0  0  0  0  0  0  0  0  0  0
  9 10  2  0
 19 20  1  0
  2  3  1  0
 20 21  2  0
 21 16  1  0
 10 11  1  0
 20 22  1  0
  5  6  2  0
 22 23  1  0
 11 12  2  0
 22 24  1  0
 12  7  1  0
 22 25  1  0
  3  7  1  0
 18 26  1  0
  6  1  1  0
 26 27  1  0
 12 13  1  0
 26 28  1  0
  1  2  2  0
 26 29  1  0
 13 14  1  0
 14 30  2  0
  3  4  2  0
 13 31  1  0
 14 15  1  0
 15 32  1  0
  7  8  2  0
 15 33  1  0
 15 16  1  0
  2 34  1  0
  9 35  1  0
 16 17  2  0
  8  9  1  0
 17 18  1  0
  4  5  1  0
 18 19  2  0
 36 40  1  0
 36 37  1  0
 37 38  1  0
 38 35  1  0
 35 39  1  0
 39 40  1  0
M  END

> <chembl_id>
CHEMBL204694

> <chembl_pref_name>
BEFETUPITANT

$$$$

     RDKit          2D

 25 27  0  0  0  0  0  0  0  0999 V2000
   -0.4144    0.2384    0.0000 S   0  0  0  0  0  0  0  0  0  0  0  0
   -0.0019    3.9829    0.0000 O   0  0  0  0  0  0  0  0  0  0  0  0
    1.4270    1.5079    0.0000 O   0  0  0  0  0  0  0  0  0  0  0  0
    2.1415    2.7454    0.0000 O   0  0  0  0  0  0  0  0  0  0  0  0
   -1.4308    3.9829    0.0000 N   0  0  0  0  0  0  0  0  0  0  0  0
   -2.1453    1.9204    0.0000 N   0  0  0  0  0  0  0  0  0  0  0  0
   -0.0019    2.3329    0.0000 C   0  0  0  0  0  0  0  0  0  0  0  0
    0.7126    2.7454    0.0000 C   0  0  0  0  0  0  0  0  0  0  0  0
   -0.7164    2.7454    0.0000 C   0  0  0  0  0  0  0  0  0  0  0  0
   -0.0019    1.5079    0.0000 C   0  0  0  0  0  0  0  0  0  0  0  0
    0.7126    3.5704    0.0000 C   0  0  0  0  0  0  0  0  0  0  0  0
   -0.7164    3.5704    0.0000 C   0  0  0  0  0  0  0  0  0  0  0  0
    1.4270    2.3329    0.0000 C   0  0  0  0  0  0  0  0  0  0  0  0
   -1.4308    2.3329    0.0000 C   0  0  0  0  0  0  0  0  0  0  0  0
   -0.6693    1.0230    0.0000 C   0  0  0  0  0  0  0  0  0  0  0  0
    0.6655    1.0230    0.0000 C   0  0  0  0  0  0  0  0  0  0  0  0
    1.4270    3.9829    0.0000 C   0  0  0  0  0  0  0  0  0  0  0  0
    0.4106    0.2384    0.0000 C   0  0  0  0  0  0  0  0  0  0  0  0
    2.1415    1.0954    0.0000 C   0  0  0  0  0  0  0  0  0  0  0  0
    2.1415    0.2704    0.0000 C   0  0  0  0  0  0  0  0  0  0  0  0
    2.8560   -0.1421    0.0000 C   0  0  0  0  0  0  0  0  0  0  0  0
    1.4270   -0.1421    0.0000 C   0  0  0  0  0  0  0  0  0  0  0  0
    2.8560   -0.9671    0.0000 C   0  0  0  0  0  0  0  0  0  0  0  0
    1.4270   -0.9671    0.0000 C   0  0  0  0  0  0  0  0  0  0  0  0
    2.1415   -1.3796    0.0000 C   0  0  0  0  0  0  0  0  0  0  0  0
  1 15  1  0
  1 18  1  0
  2 11  1  0
  2 12  1  0
  3 13  1  0
  3 19  1  0
  4 13  2  0
  5 12  1  0
  6 14  3  0
  7  8  1  0
  7  9  1  0
  7 10  1  0
  8 11  2  0
  8 13  1  0
  9 12  2  0
  9 14  1  0
 10 15  2  0
 10 16  1  0
 11 17  1  0
 16 18  2  0
 19 20  1  0
 20 21  2  0
 20 22  1  0
 21 23  1  0
 22 24  2  0
 23 25  2  0
 24 25  1  0
M  END

> <chembl_id>
CHEMBL1440654

> <chembl_pref_name>
None

$$$$

     RDKit          2D

 38 40  0  0  0  0  0  0  0  0999 V2000
   10.1622   -4.6263    0.0000 Cl  0  0  0  0  0  0  0  0  0  0  0  0
    6.1520   -5.4270    0.0000 N   0  0  0  0  0  0  0  0  0  0  0  0
    5.4844   -5.9479    0.0000 C   0  0  0  0  0  0  0  0  0  0  0  0
    5.4896   -6.7562    0.0000 C   0  0  0  0  0  0  0  0  0  0  0  0
    6.8774   -7.1415    0.0000 N   0  0  0  0  0  0  0  0  0  0  0  0
    6.1016   -7.2825    0.0000 C   0  0  0  0  0  0  0  0  0  0  0  0
    6.9494   -5.6303    0.0000 C   0  0  0  0  0  0  0  0  0  0  0  0
    7.2791   -6.3886    0.0000 C   0  0  0  0  0  0  0  0  0  0  0  0
    8.0989   -6.4810    0.0000 C   0  0  0  0  0  0  0  0  0  0  0  0
    8.5899   -5.8159    0.0000 C   0  0  0  0  0  0  0  0  0  0  0  0
    8.2551   -5.0563    0.0000 C   0  0  0  0  0  0  0  0  0  0  0  0
    7.4364   -4.9676    0.0000 C   0  0  0  0  0  0  0  0  0  0  0  0
    5.8856   -8.0789    0.0000 O   0  0  0  0  0  0  0  0  0  0  0  0
    4.7780   -7.1746    0.0000 N   0  0  0  0  0  0  0  0  0  0  0  0
    4.0603   -6.7677    0.0000 C   0  0  0  0  0  0  0  0  0  0  0  0
    3.3489   -7.1858    0.0000 C   0  0  0  0  0  0  0  0  0  0  0  0
    2.6310   -6.7789    0.0000 N   0  0  0  0  0  0  0  0  0  0  0  0
    3.3553   -8.0110    0.0000 C   0  0  0  0  0  0  0  0  0  0  0  0
    1.9197   -7.1971    0.0000 C   0  0  0  0  0  0  0  0  0  0  0  0
    7.0978   -7.9363    0.0000 C   0  0  0  0  0  0  0  0  0  0  0  0
    4.0538   -5.9425    0.0000 O   0  0  0  0  0  0  0  0  0  0  0  0
    6.1266   -4.6024    0.0000 C   0  0  0  0  0  0  0  0  0  0  0  0
    6.8282   -4.1682    0.0000 O   0  0  0  0  0  0  0  0  0  0  0  0
    5.3997   -4.2120    0.0000 C   0  0  0  0  0  0  0  0  0  0  0  0
    4.7417   -5.5882    0.0000 C   0  0  0  0  0  0  0  0  0  0  0  0
    5.3744   -3.3872    0.0000 S   0  0  0  0  0  0  0  0  0  0  0  0
    4.6476   -2.9968    0.0000 C   0  0  0  0  0  0  0  0  0  0  0  0
    6.1677   -3.5964    0.0000 O   0  0  0  0  0  0  0  0  0  0  0  0
    5.7802   -2.6671    0.0000 O   0  0  0  0  0  0  0  0  0  0  0  0
    7.8967   -8.1428    0.0000 C   0  0  0  0  0  0  0  0  0  0  0  0
    9.2318   -8.0559    0.0000 O   0  0  0  0  0  0  0  0  0  0  0  0
    8.5359   -7.6128    0.0000 N   0  0  0  0  0  0  0  0  0  0  0  0
    9.0253   -8.8548    0.0000 C   0  0  0  0  0  0  0  0  0  0  0  0
    8.2029   -8.9023    0.0000 C   0  0  0  0  0  0  0  0  0  0  0  0
    7.8346   -9.6370    0.0000 C   0  0  0  0  0  0  0  0  0  0  0  0
    8.2874  -10.3249    0.0000 C   0  0  0  0  0  0  0  0  0  0  0  0
    9.1128  -10.2732    0.0000 C   0  0  0  0  0  0  0  0  0  0  0  0
    9.4774   -9.5381    0.0000 C   0  0  0  0  0  0  0  0  0  0  0  0
  2  3  1  0
  3  4  1  0
  2  7  1  0
  8  5  1  0
  5  6  1  0
  6  4  1  0
  7  8  2  0
  8  9  1  0
  9 10  2  0
 10 11  1  0
 11 12  2  0
 12  7  1  0
  6 13  2  0
  4 14  1  1
 14 15  1  0
 15 16  1  0
 16 17  1  0
 16 18  1  6
 17 19  1  0
  5 20  1  0
 15 21  2  0
  2 22  1  0
 22 23  2  0
 22 24  1  0
  3 25  1  6
 24 26  1  0
 26 27  1  0
 26 28  2  0
 26 29  2  0
 20 30  1  0
 30 34  1  0
 33 31  1  0
 31 32  1  0
 32 30  2  0
 33 34  2  0
 34 35  1  0
 35 36  2  0
 36 37  1  0
 37 38  2  0
 38 33  1  0
M  END

> <chembl_id>
CHEMBL2436220

> <chembl_pref_name>
None

$$$$

     RDKit          2D

 31 34  0  0  0  0  0  0  0  0999 V2000
    9.3875   -0.3917    0.0000 C   0  0  0  0  0  0  0  0  0  0  0  0
    8.6708    0.0208    0.0000 C   0  0  0  0  0  0  0  0  0  0  0  0
    7.9542   -0.4000    0.0000 C   0  0  0  0  0  0  0  0  0  0  0  0
   10.0875    0.0250    0.0000 C   0  0  0  0  0  0  0  0  0  0  0  0
    7.2375    0.0125    0.0000 C   0  0  0  0  0  0  0  0  0  0  0  0
    9.3875   -1.2167    0.0000 C   0  0  0  0  0  0  0  0  0  0  0  0
    7.9542   -1.2167    0.0000 C   0  0  0  0  0  0  0  0  0  0  0  0
   10.8083   -0.3792    0.0000 C   0  0  0  0  0  0  0  0  0  0  0  0
    8.6708   -1.6292    0.0000 O   0  0  0  0  0  0  0  0  0  0  0  0
    6.5250   -0.4000    0.0000 C   0  0  0  0  0  0  0  0  0  0  0  0
   10.8125   -1.2042    0.0000 C   0  0  0  0  0  0  0  0  0  0  0  0
   10.1000   -1.6250    0.0000 C   0  0  0  0  0  0  0  0  0  0  0  0
    7.2375   -1.6417    0.0000 C   0  0  0  0  0  0  0  0  0  0  0  0
    6.5250   -1.2292    0.0000 C   0  0  0  0  0  0  0  0  0  0  0  0
    7.2375    0.8375    0.0000 C   0  0  0  0  0  0  0  0  0  0  0  0
   11.5208    0.0375    0.0000 C   0  0  0  0  0  0  0  0  0  0  0  0
    6.5250    1.2458    0.0000 C   0  0  0  0  0  0  0  0  0  0  0  0
    8.6625    0.8458    0.0000 O   0  0  0  0  0  0  0  0  0  0  0  0
    6.5208    2.0708    0.0000 C   0  0  0  0  0  0  0  0  0  0  0  0
   10.0875    0.8500    0.0000 O   0  0  0  0  0  0  0  0  0  0  0  0
   11.5333   -1.6167    0.0000 O   0  0  0  0  0  0  0  0  0  0  0  0
    5.8125    0.0083    0.0000 O   0  0  0  0  0  0  0  0  0  0  0  0
    5.8125   -1.6417    0.0000 O   0  0  0  0  0  0  0  0  0  0  0  0
    5.8000    2.4833    0.0000 C   0  0  0  0  0  0  0  0  0  0  0  0
    7.2333    2.4917    0.0000 C   0  0  0  0  0  0  0  0  0  0  0  0
    5.1000   -0.4042    0.0000 C   0  0  0  0  0  0  0  0  0  0  0  0
   10.8020    1.2625    0.0000 C   0  0  0  0  0  0  0  0  0  0  0  0
   11.5162    0.8625    0.0000 C   0  0  0  0  0  0  0  0  0  0  0  0
   12.2268    1.2816    0.0000 O   0  0  0  0  0  0  0  0  0  0  0  0
   11.2083    1.9833    0.0000 C   0  0  0  0  0  0  0  0  0  0  0  0
   10.3833    1.9833    0.0000 C   0  0  0  0  0  0  0  0  0  0  0  0
  6  1  2  0
  7  9  1  0
  8  4  2  0
  9  6  1  0
 10  5  1  0
 11 12  2  0
 12  6  1  0
 13  7  2  0
 14 13  1  0
 15  5  1  0
 16  8  1  0
 17 15  1  0
 18  2  2  0
 19 17  2  0
 20  4  1  0
 21 11  1  0
 22 10  1  0
 23 14  1  0
 24 19  1  0
 25 19  1  0
 26 22  1  0
  8 11  1  0
  3  7  1  0
 10 14  2  0
 20 27  1  0
  2  1  1  0
 16 28  1  0
 28 27  1  0
  3  2  1  0
 28 29  1  0
  4  1  1  0
 27 30  1  0
  5  3  2  0
 27 31  1  0
M  END

> <chembl_id>
CHEMBL1080697

> <chembl_pref_name>
None

$$$$

     RDKit          2D

 30 32  0  0  0  0  0  0  0  0999 V2000
    0.7690   -2.0454    0.0000 S   0  0  0  0  0  0  0  0  0  0  0  0
    1.1815   -4.1399    0.0000 S   0  0  0  0  0  0  0  0  0  0  0  0
    1.5940   -2.0454    0.0000 O   0  0  0  0  0  0  0  0  0  0  0  0
   -0.0560   -2.0454    0.0000 O   0  0  0  0  0  0  0  0  0  0  0  0
    0.2071   -5.5610    0.0000 O   0  0  0  0  0  0  0  0  0  0  0  0
    0.7690    2.9046    0.0000 O   0  0  0  0  0  0  0  0  0  0  0  0
    0.7690   -1.2204    0.0000 N   0  0  0  0  0  0  0  0  0  0  0  0
   -0.6600    2.9046    0.0000 N   0  0  0  0  0  0  0  0  0  0  0  0
   -0.9489   -4.7211    0.0000 N   0  0  0  0  0  0  0  0  0  0  0  0
    0.7690   -2.8704    0.0000 C   0  0  0  0  0  0  0  0  0  0  0  0
    0.3565   -4.1399    0.0000 C   0  0  0  0  0  0  0  0  0  0  0  0
    0.1015   -3.3553    0.0000 C   0  0  0  0  0  0  0  0  0  0  0  0
    1.4364   -3.3553    0.0000 C   0  0  0  0  0  0  0  0  0  0  0  0
   -0.1284   -4.8074    0.0000 C   0  0  0  0  0  0  0  0  0  0  0  0
    0.0545    0.0171    0.0000 C   0  0  0  0  0  0  0  0  0  0  0  0
    0.0545   -0.8079    0.0000 C   0  0  0  0  0  0  0  0  0  0  0  0
    0.0545    1.6671    0.0000 C   0  0  0  0  0  0  0  0  0  0  0  0
   -0.6600    3.7296    0.0000 C   0  0  0  0  0  0  0  0  0  0  0  0
    0.0545    2.4921    0.0000 C   0  0  0  0  0  0  0  0  0  0  0  0
   -1.3744    4.1421    0.0000 C   0  0  0  0  0  0  0  0  0  0  0  0
   -0.6600    0.4296    0.0000 C   0  0  0  0  0  0  0  0  0  0  0  0
    0.7690    0.4296    0.0000 C   0  0  0  0  0  0  0  0  0  0  0  0
   -0.6600    1.2546    0.0000 C   0  0  0  0  0  0  0  0  0  0  0  0
    0.7690    1.2546    0.0000 C   0  0  0  0  0  0  0  0  0  0  0  0
   -1.3744    4.9671    0.0000 C   0  0  0  0  0  0  0  0  0  0  0  0
    0.0545    4.1421    0.0000 C   0  0  0  0  0  0  0  0  0  0  0  0
   -0.6600    5.3796    0.0000 C   0  0  0  0  0  0  0  0  0  0  0  0
    0.0545    4.9671    0.0000 C   0  0  0  0  0  0  0  0  0  0  0  0
   -2.0889    3.7296    0.0000 C   0  0  0  0  0  0  0  0  0  0  0  0
   -2.0889    5.3796    0.0000 C   0  0  0  0  0  0  0  0  0  0  0  0
  1  3  2  0
  1  4  2  0
  1  7  1  0
  1 10  1  0
  2 11  1  0
  2 13  1  0
  5 14  2  0
  6 19  2  0
  7 16  1  0
  8 18  1  0
  8 19  1  0
  9 14  1  0
 10 12  1  0
 10 13  2  0
 11 12  2  0
 11 14  1  0
 15 16  1  0
 15 21  1  0
 15 22  1  0
 17 19  1  0
 17 23  1  0
 17 24  1  0
 18 20  2  0
 18 26  1  0
 20 25  1  0
 20 29  1  0
 21 23  1  0
 22 24  1  0
 25 27  2  0
 25 30  1  0
 26 28  2  0
 27 28  1  0
M  END

> <chembl_id>
CHEMBL1440094

> <chembl_pref_name>
None

$$$$

     RDKit          2D

 28 30  0  0  0  0  0  0  0  0999 V2000
   15.3670  -19.8403    0.0000 C   0  0  0  0  0  0  0  0  0  0  0  0
   14.6478  -20.2503    0.0000 C   0  0  0  0  0  0  0  0  0  0  0  0
   14.6409  -21.0801    0.0000 C   0  0  0  0  0  0  0  0  0  0  0  0
   15.0809  -21.7779    0.0000 C   0  0  0  0  0  0  0  0  0  0  0  0
   13.9341  -19.8359    0.0000 C   0  0  0  0  0  0  0  0  0  0  0  0
   13.9384  -19.0098    0.0000 C   0  0  0  0  0  0  0  0  0  0  0  0
   13.2205  -20.2428    0.0000 O   0  0  0  0  0  0  0  0  0  0  0  0
   14.6577  -18.6016    0.0000 C   0  0  0  0  0  0  0  0  0  0  0  0
   14.6624  -17.7763    0.0000 C   0  0  0  0  0  0  0  0  0  0  0  0
   13.9527  -17.3609    0.0000 C   0  0  0  0  0  0  0  0  0  0  0  0
   13.2321  -17.7722    0.0000 C   0  0  0  0  0  0  0  0  0  0  0  0
   13.2309  -18.5962    0.0000 C   0  0  0  0  0  0  0  0  0  0  0  0
   16.0819  -20.2529    0.0000 C   0  0  0  0  0  0  0  0  0  0  0  0
   16.0776  -21.0767    0.0000 C   0  0  0  0  0  0  0  0  0  0  0  0
   16.7917  -21.4939    0.0000 C   0  0  0  0  0  0  0  0  0  0  0  0
   17.5097  -21.0804    0.0000 C   0  0  0  0  0  0  0  0  0  0  0  0
   17.5093  -20.2502    0.0000 C   0  0  0  0  0  0  0  0  0  0  0  0
   16.7946  -19.8413    0.0000 C   0  0  0  0  0  0  0  0  0  0  0  0
   14.6912  -22.5005    0.0000 C   0  0  0  0  0  0  0  0  0  0  0  0
   15.1309  -23.1985    0.0000 C   0  0  0  0  0  0  0  0  0  0  0  0
   15.9551  -23.1685    0.0000 C   0  0  0  0  0  0  0  0  0  0  0  0
   16.3378  -22.4347    0.0000 C   0  0  0  0  0  0  0  0  0  0  0  0
   15.9007  -21.7442    0.0000 C   0  0  0  0  0  0  0  0  0  0  0  0
   16.3922  -23.8672    0.0000 Cl  0  0  0  0  0  0  0  0  0  0  0  0
   13.9572  -16.5394    0.0000 Cl  0  0  0  0  0  0  0  0  0  0  0  0
   12.5181  -19.0044    0.0000 Cl  0  0  0  0  0  0  0  0  0  0  0  0
   18.2209  -21.4914    0.0000 Cl  0  0  0  0  0  0  0  0  0  0  0  0
   16.7891  -22.3154    0.0000 Cl  0  0  0  0  0  0  0  0  0  0  0  0
 13 14  2  0
  6  8  2  0
 14 15  1  0
  2  5  1  0
 15 16  2  0
  8  9  1  0
 16 17  1  0
 17 18  2  0
 18 13  1  0
  9 10  2  0
  4 19  2  0
  5  6  1  0
 19 20  1  0
 10 11  1  0
 20 21  2  0
  3  4  1  0
 21 22  1  0
 11 12  2  0
 22 23  2  0
 23  4  1  0
 12  6  1  0
 21 24  1  0
  2  1  1  0
 10 25  1  0
  5  7  2  0
 12 26  1  0
  1 13  1  0
 16 27  1  0
  2  3  2  0
 15 28  1  0
M  END

> <chembl_id>
CHEMBL1242694

> <chembl_pref_name>
None

$$$$

     RDKit          2D

 20 22  0  0  0  0  0  0  0  0999 V2000
    2.5109    0.9078    0.0000 N   0  0  0  0  0  0  0  0  0  0  0  0
    0.7885    0.9548    0.0000 N   0  0  0  0  0  0  0  0  0  0  0  0
    2.0010   -1.9963    0.0000 N   0  0  0  0  0  0  0  0  0  0  0  0
   -0.4490    1.6693    0.0000 N   0  0  0  0  0  0  0  0  0  0  0  0
    3.2955   -0.1721    0.0000 C   0  0  0  0  0  0  0  0  0  0  0  0
    3.2955    0.6529    0.0000 C   0  0  0  0  0  0  0  0  0  0  0  0
    2.0260    0.2404    0.0000 C   0  0  0  0  0  0  0  0  0  0  0  0
    2.5109   -0.4271    0.0000 C   0  0  0  0  0  0  0  0  0  0  0  0
    4.0100   -0.5846    0.0000 C   0  0  0  0  0  0  0  0  0  0  0  0
    4.0100    1.0654    0.0000 C   0  0  0  0  0  0  0  0  0  0  0  0
    1.2010    0.2404    0.0000 C   0  0  0  0  0  0  0  0  0  0  0  0
    2.2559   -1.2117    0.0000 C   0  0  0  0  0  0  0  0  0  0  0  0
    2.2559    1.6924    0.0000 C   0  0  0  0  0  0  0  0  0  0  0  0
    4.7245   -0.1721    0.0000 C   0  0  0  0  0  0  0  0  0  0  0  0
    4.7245    0.6529    0.0000 C   0  0  0  0  0  0  0  0  0  0  0  0
   -0.0365    0.9548    0.0000 C   0  0  0  0  0  0  0  0  0  0  0  0
   -0.4490    0.2404    0.0000 C   0  0  0  0  0  0  0  0  0  0  0  0
   -1.2740    1.6693    0.0000 C   0  0  0  0  0  0  0  0  0  0  0  0
   -1.2740    0.2404    0.0000 C   0  0  0  0  0  0  0  0  0  0  0  0
   -1.6865    0.9548    0.0000 C   0  0  0  0  0  0  0  0  0  0  0  0
  1  6  1  0
  1  7  1  0
  1 13  1  0
  2 11  1  0
  2 16  1  0
  3 12  3  0
  4 16  1  0
  4 18  2  0
  5  6  1  0
  5  8  1  0
  5  9  2  0
  6 10  2  0
  7  8  2  0
  7 11  1  0
  8 12  1  0
  9 14  1  0
 10 15  1  0
 14 15  2  0
 16 17  2  0
 17 19  1  0
 18 20  1  0
 19 20  2  0
M  END

> <chembl_id>
CHEMBL1400644

> <chembl_pref_name>
None

$$$$

     RDKit          2D

 29 32  0  0  0  0  0  0  0  0999 V2000
    7.7750   -4.9625    0.0000 N   0  0  0  0  0  0  0  0  0  0  0  0
    4.9042   -5.5917    0.0000 C   0  0  0  0  0  0  0  0  0  0  0  0
    6.8917   -5.3625    0.0000 N   0  0  0  0  0  0  0  0  0  0  0  0
    7.4792   -5.4792    0.0000 C   0  0  0  0  0  0  0  0  0  0  0  0
    5.0875   -5.0167    0.0000 C   0  0  0  0  0  0  0  0  0  0  0  0
    5.3917   -5.9417    0.0000 O   0  0  0  0  0  0  0  0  0  0  0  0
    7.3667   -4.5167    0.0000 C   0  0  0  0  0  0  0  0  0  0  0  0
    6.8250   -4.7625    0.0000 C   0  0  0  0  0  0  0  0  0  0  0  0
    5.8750   -5.5792    0.0000 C   0  0  0  0  0  0  0  0  0  0  0  0
    6.4417   -5.7667    0.0000 C   0  0  0  0  0  0  0  0  0  0  0  0
    5.6875   -5.0125    0.0000 C   0  0  0  0  0  0  0  0  0  0  0  0
    4.3542   -6.0542    0.0000 O   0  0  0  0  0  0  0  0  0  0  0  0
    5.0792   -4.4167    0.0000 C   0  0  0  0  0  0  0  0  0  0  0  0
    4.4875   -5.0167    0.0000 C   0  0  0  0  0  0  0  0  0  0  0  0
    8.3667   -4.8917    0.0000 C   0  0  0  0  0  0  0  0  0  0  0  0
    7.7250   -6.0292    0.0000 C   0  0  0  0  0  0  0  0  0  0  0  0
    7.3750   -6.5167    0.0000 O   0  0  0  0  0  0  0  0  0  0  0  0
    5.6042   -4.1042    0.0000 C   0  0  0  0  0  0  0  0  0  0  0  0
    4.5542   -4.1167    0.0000 C   0  0  0  0  0  0  0  0  0  0  0  0
    4.1875   -4.4917    0.0000 C   0  0  0  0  0  0  0  0  0  0  0  0
    4.1875   -5.5292    0.0000 C   0  0  0  0  0  0  0  0  0  0  0  0
    7.6250   -7.0625    0.0000 C   0  0  0  0  0  0  0  0  0  0  0  0
    7.2750   -7.5500    0.0000 C   0  0  0  0  0  0  0  0  0  0  0  0
    3.5875   -5.5292    0.0000 C   0  0  0  0  0  0  0  0  0  0  0  0
    5.5917   -3.5042    0.0000 C   0  0  0  0  0  0  0  0  0  0  0  0
    4.5500   -3.5167    0.0000 C   0  0  0  0  0  0  0  0  0  0  0  0
    3.5875   -4.4875    0.0000 C   0  0  0  0  0  0  0  0  0  0  0  0
    5.0667   -3.2125    0.0000 C   0  0  0  0  0  0  0  0  0  0  0  0
    3.2792   -5.0042    0.0000 C   0  0  0  0  0  0  0  0  0  0  0  0
  2  6  1  0
  3  4  1  0
  4  1  2  0
  5 11  1  0
  6  9  1  0
  7  1  1  0
  8  7  2  0
  9 10  1  0
 10  3  1  0
 11  9  1  0
 12  2  2  0
 13  5  1  0
 14  5  1  0
 15  1  1  0
 16  4  1  0
 17 16  1  0
 18 13  2  0
 19 13  1  0
 20 14  2  0
 21 14  1  0
 22 17  1  0
 23 22  1  0
 24 21  2  0
 25 18  1  0
 26 19  2  0
 27 20  1  0
 28 26  1  0
 29 27  2  0
  8  3  1  0
  5  2  1  0
 24 29  1  0
 28 25  2  0
M  CHG  1   1   1
M  END

> <chembl_id>
CHEMBL1180694

> <chembl_pref_name>
None

$$$$

     RDKit          2D

 21 22  0  0  0  0  0  0  0  0999 V2000
    3.5504    0.3300    0.0000 N   0  0  0  0  0  0  0  0  0  0  0  0
    2.1214   -1.3200    0.0000 N   0  0  0  0  0  0  0  0  0  0  0  0
    4.9793    1.1550    0.0000 C   0  0  0  0  0  0  0  0  0  0  0  0
    2.8359   -0.9075    0.0000 C   0  0  0  0  0  0  0  0  0  0  0  0
    2.8359   -0.0825    0.0000 C   0  0  0  0  0  0  0  0  0  0  0  0
    3.5504    1.1550    0.0000 C   0  0  0  0  0  0  0  0  0  0  0  0
    4.2648   -0.0825    0.0000 C   0  0  0  0  0  0  0  0  0  0  0  0
    4.2648    1.5675    0.0000 C   0  0  0  0  0  0  0  0  0  0  0  0
    4.9793    0.3300    0.0000 C   0  0  0  0  0  0  0  0  0  0  0  0
    5.6938    1.5675    0.0000 C   0  0  0  0  0  0  0  0  0  0  0  0
    6.4083    1.1550    0.0000 C   0  0  0  0  0  0  0  0  0  0  0  0
    3.5504   -1.3200    0.0000 C   0  0  0  0  0  0  0  0  0  0  0  0
    7.1227    1.5675    0.0000 C   0  0  0  0  0  0  0  0  0  0  0  0
    6.4083    0.3300    0.0000 C   0  0  0  0  0  0  0  0  0  0  0  0
    2.1214   -2.1450    0.0000 C   0  0  0  0  0  0  0  0  0  0  0  0
    3.5504   -2.1450    0.0000 C   0  0  0  0  0  0  0  0  0  0  0  0
    2.8359   -2.5575    0.0000 C   0  0  0  0  0  0  0  0  0  0  0  0
    7.8372    1.1550    0.0000 C   0  0  0  0  0  0  0  0  0  0  0  0
    7.1227   -0.0825    0.0000 C   0  0  0  0  0  0  0  0  0  0  0  0
    7.8372    0.3300    0.0000 C   0  0  0  0  0  0  0  0  0  0  0  0
    0.0000    0.0000    0.0000 Br  0  0  0  0  0  0  0  0  0  0  0  0
  1  5  1  0
  1  6  2  0
  1  7  1  0
  2  4  1  0
  2 15  2  0
  3  8  2  0
  3  9  1  0
  3 10  1  0
  4  5  1  0
  4 12  2  0
  6  8  1  0
  7  9  2  0
 10 11  1  0
 11 13  2  0
 11 14  1  0
 12 16  1  0
 13 18  1  0
 14 19  2  0
 15 17  1  0
 16 17  2  0
 18 20  2  0
 19 20  1  0
M  CHG  2   1   1  21  -1
M  END

> <chembl_id>
CHEMBL1705932

> <chembl_pref_name>
None

$$$$

     RDKit          2D

 29 31  0  0  0  0  0  0  0  0999 V2000
   -0.2219    1.1582    0.0000 S   0  0  0  0  0  0  0  0  0  0  0  0
   -0.2219    4.4582    0.0000 S   0  0  0  0  0  0  0  0  0  0  0  0
    0.6031    1.1582    0.0000 O   0  0  0  0  0  0  0  0  0  0  0  0
   -1.0469    1.1582    0.0000 O   0  0  0  0  0  0  0  0  0  0  0  0
    0.6031    4.4582    0.0000 O   0  0  0  0  0  0  0  0  0  0  0  0
   -1.0469    4.4582    0.0000 O   0  0  0  0  0  0  0  0  0  0  0  0
   -0.2219    0.3332    0.0000 N   0  0  0  0  0  0  0  0  0  0  0  0
   -0.2219    5.2832    0.0000 N   0  0  0  0  0  0  0  0  0  0  0  0
   -0.2219   -1.3168    0.0000 N   0  0  0  0  0  0  0  0  0  0  0  0
   -0.2219    1.9832    0.0000 C   0  0  0  0  0  0  0  0  0  0  0  0
   -0.9363   -0.0793    0.0000 C   0  0  0  0  0  0  0  0  0  0  0  0
   -0.2219    3.6332    0.0000 C   0  0  0  0  0  0  0  0  0  0  0  0
   -0.9363    2.3957    0.0000 C   0  0  0  0  0  0  0  0  0  0  0  0
    0.4926    2.3957    0.0000 C   0  0  0  0  0  0  0  0  0  0  0  0
    0.4926   -0.0793    0.0000 C   0  0  0  0  0  0  0  0  0  0  0  0
   -0.9363    3.2207    0.0000 C   0  0  0  0  0  0  0  0  0  0  0  0
    0.4926    3.2207    0.0000 C   0  0  0  0  0  0  0  0  0  0  0  0
    0.4926   -0.9043    0.0000 C   0  0  0  0  0  0  0  0  0  0  0  0
   -0.9363   -0.9043    0.0000 C   0  0  0  0  0  0  0  0  0  0  0  0
   -1.6508    0.3332    0.0000 C   0  0  0  0  0  0  0  0  0  0  0  0
   -1.6508   -1.3168    0.0000 C   0  0  0  0  0  0  0  0  0  0  0  0
   -2.3653   -0.0793    0.0000 C   0  0  0  0  0  0  0  0  0  0  0  0
    1.2071   -1.3168    0.0000 C   0  0  0  0  0  0  0  0  0  0  0  0
   -2.3653   -0.9043    0.0000 C   0  0  0  0  0  0  0  0  0  0  0  0
    0.4926    5.6957    0.0000 C   0  0  0  0  0  0  0  0  0  0  0  0
   -0.2219   -2.1418    0.0000 C   0  0  0  0  0  0  0  0  0  0  0  0
    1.2071   -2.1418    0.0000 C   0  0  0  0  0  0  0  0  0  0  0  0
    0.4926   -2.5543    0.0000 C   0  0  0  0  0  0  0  0  0  0  0  0
    0.4926    6.5207    0.0000 C   0  0  0  0  0  0  0  0  0  0  0  0
  1  3  2  0
  1  4  2  0
  1  7  1  0
  1 10  1  0
  2  5  2  0
  2  6  2  0
  2  8  1  0
  2 12  1  0
  7 11  1  0
  7 15  1  0
  8 25  1  0
  9 18  1  0
  9 26  2  0
 10 13  2  0
 10 14  1  0
 11 19  1  0
 11 20  1  0
 12 16  2  0
 12 17  1  0
 13 16  1  0
 14 17  2  0
 15 18  1  0
 18 23  2  0
 19 21  1  0
 20 22  1  0
 21 24  1  0
 22 24  1  0
 23 27  1  0
 25 29  1  0
 26 28  1  0
 27 28  2  0
M  END

> <chembl_id>
CHEMBL1443694

> <chembl_pref_name>
None

$$$$

     RDKit          2D

 22 24  0  0  0  0  0  0  0  0999 V2000
   -0.1005    1.6770    0.0000 O   0  0  0  0  0  0  0  0  0  0  0  0
   -2.2440   -1.2105    0.0000 N   0  0  0  0  0  0  0  0  0  0  0  0
   -2.9584    0.0270    0.0000 N   0  0  0  0  0  0  0  0  0  0  0  0
   -3.6729   -1.2105    0.0000 N   0  0  0  0  0  0  0  0  0  0  0  0
    0.6139   -2.0355    0.0000 N   0  0  0  0  0  0  0  0  0  0  0  0
   -2.2440   -2.0355    0.0000 C   0  0  0  0  0  0  0  0  0  0  0  0
   -1.5295   -2.4480    0.0000 C   0  0  0  0  0  0  0  0  0  0  0  0
   -2.9584   -0.7980    0.0000 C   0  0  0  0  0  0  0  0  0  0  0  0
   -2.2440    0.4395    0.0000 C   0  0  0  0  0  0  0  0  0  0  0  0
   -2.9584   -2.4480    0.0000 C   0  0  0  0  0  0  0  0  0  0  0  0
   -0.8150   -2.0355    0.0000 C   0  0  0  0  0  0  0  0  0  0  0  0
   -1.5295   -3.2730    0.0000 C   0  0  0  0  0  0  0  0  0  0  0  0
   -3.6729   -2.0355    0.0000 C   0  0  0  0  0  0  0  0  0  0  0  0
   -0.1005   -2.4480    0.0000 C   0  0  0  0  0  0  0  0  0  0  0  0
   -2.2440    1.2645    0.0000 C   0  0  0  0  0  0  0  0  0  0  0  0
   -1.5295    0.0270    0.0000 C   0  0  0  0  0  0  0  0  0  0  0  0
   -0.8150    1.2645    0.0000 C   0  0  0  0  0  0  0  0  0  0  0  0
   -1.5295    1.6770    0.0000 C   0  0  0  0  0  0  0  0  0  0  0  0
   -0.8150    0.4395    0.0000 C   0  0  0  0  0  0  0  0  0  0  0  0
   -0.8150   -3.6855    0.0000 C   0  0  0  0  0  0  0  0  0  0  0  0
   -0.1005   -3.2730    0.0000 C   0  0  0  0  0  0  0  0  0  0  0  0
   -0.1005    2.5020    0.0000 C   0  0  0  0  0  0  0  0  0  0  0  0
  1 17  1  0
  1 22  1  0
  2  6  2  0
  2  8  1  0
  3  8  1  0
  3  9  1  0
  4  8  2  0
  4 13  1  0
  5 14  1  0
  6  7  1  0
  6 10  1  0
  7 11  1  0
  7 12  2  0
  9 15  2  0
  9 16  1  0
 10 13  2  0
 11 14  2  0
 12 20  1  0
 14 21  1  0
 15 18  1  0
 16 19  2  0
 17 18  2  0
 17 19  1  0
 20 21  2  0
M  END

> <chembl_id>
CHEMBL1406948

> <chembl_pref_name>
None

$$$$

     RDKit          2D

 34 37  0  0  0  0  0  0  0  0999 V2000
    2.3383   -1.3500    0.0000 C   0  0  0  0  0  0  0  0  0  0  0  0
    1.2990   -0.7500    0.0000 C   0  0  0  0  0  0  0  0  0  0  0  0
    1.2990    0.7500    0.0000 C   0  0  0  0  0  0  0  0  0  0  0  0
    0.0000    1.5000    0.0000 N   0  0  0  0  0  0  0  0  0  0  0  0
   -1.2990    0.7500    0.0000 C   0  0  0  0  0  0  0  0  0  0  0  0
   -1.2990   -0.7500    0.0000 C   0  0  0  0  0  0  0  0  0  0  0  0
   -2.3383   -1.3500    0.0000 C   0  0  0  0  0  0  0  0  0  0  0  0
    0.0000   -1.5000    0.0000 C   0  0  0  0  0  0  0  0  0  0  0  0
    1.0531   -2.0753    0.0000 O   0  0  0  0  0  0  0  0  0  0  0  0
   -0.9781   -2.6116    0.0000 C   0  0  0  0  0  0  0  0  0  0  0  0
   -0.4983   -4.0328    0.0000 C   0  0  0  0  0  0  0  0  0  0  0  0
   -1.4892   -5.1589    0.0000 N   0  0  0  0  0  0  0  0  0  0  0  0
   -2.9599   -4.8638    0.0000 C   0  0  0  0  0  0  0  0  0  0  0  0
   -3.4397   -3.4426    0.0000 N   0  0  0  0  0  0  0  0  0  0  0  0
   -2.4488   -2.3165    0.0000 C   0  0  0  0  0  0  0  0  0  0  0  0
   -0.0031    3.0008    0.0000 C   0  0  0  0  0  0  0  0  0  0  0  0
    1.0351    3.6026    0.0000 O   0  0  0  0  0  0  0  0  0  0  0  0
   -1.3039    3.7494    0.0000 C   0  0  0  0  0  0  0  0  0  0  0  0
   -2.6532    3.1236    0.0000 C   0  0  0  0  0  0  0  0  0  0  0  0
   -3.6607    4.2349    0.0000 N   0  0  0  0  0  0  0  0  0  0  0  0
   -2.9153    5.5365    0.0000 C   0  0  0  0  0  0  0  0  0  0  0  0
   -1.4470    5.2297    0.0000 C   0  0  0  0  0  0  0  0  0  0  0  0
   -0.3292    6.2312    0.0000 C   0  0  0  0  0  0  0  0  0  0  0  0
   -0.7584    7.6704    0.0000 C   0  0  0  0  0  0  0  0  0  0  0  0
    0.2758    8.7569    0.0000 C   0  0  0  0  0  0  0  0  0  0  0  0
    1.7338    8.4045    0.0000 C   0  0  0  0  0  0  0  0  0  0  0  0
    2.5612    9.2737    0.0000 F   0  0  0  0  0  0  0  0  0  0  0  0
    2.1577    6.9656    0.0000 C   0  0  0  0  0  0  0  0  0  0  0  0
    1.1235    5.8791    0.0000 C   0  0  0  0  0  0  0  0  0  0  0  0
    1.4622    4.7279    0.0000 F   0  0  0  0  0  0  0  0  0  0  0  0
   -5.1502    4.0731    0.0000 C   0  0  0  0  0  0  0  0  0  0  0  0
   -5.6352    2.9754    0.0000 C   0  0  0  0  0  0  0  0  0  0  0  0
   -5.8586    5.0417    0.0000 C   0  0  0  0  0  0  0  0  0  0  0  0
   -6.3433    3.9441    0.0000 C   0  0  0  0  0  0  0  0  0  0  0  0
  2  1  1  1
  2  3  1  0
  3  4  1  0
  4  5  1  0
  5  6  1  0
  6  7  1  1
  6  8  1  0
  8  2  1  0
  8  9  1  1
  8 10  1  0
 10 11  2  0
 11 12  1  0
 12 13  2  0
 13 14  1  0
 14 15  2  0
 15 10  1  0
  4 16  1  0
 16 17  2  0
 18 16  1  6
 18 19  1  0
 19 20  1  0
 20 21  1  0
 21 22  1  0
 22 18  1  0
 22 23  1  1
 23 24  2  0
 24 25  1  0
 25 26  2  0
 26 27  1  0
 26 28  1  0
 28 29  2  0
 29 23  1  0
 29 30  1  0
 20 31  1  0
 31 32  1  0
 31 33  1  0
 31 34  1  0
M  END

> <chembl_id>
CHEMBL1089831

> <chembl_pref_name>
None

$$$$

     RDKit          2D

 20 21  0  0  0  0  0  0  0  0999 V2000
    0.7859   -4.8263    0.0000 Cl  0  0  0  0  0  0  0  0  0  0  0  0
    0.7859   -1.5263    0.0000 O   0  0  0  0  0  0  0  0  0  0  0  0
   -0.6430    1.7737    0.0000 N   0  0  0  0  0  0  0  0  0  0  0  0
    0.7859   -2.3513    0.0000 C   0  0  0  0  0  0  0  0  0  0  0  0
   -0.6430    2.5987    0.0000 C   0  0  0  0  0  0  0  0  0  0  0  0
   -1.3575    3.0113    0.0000 C   0  0  0  0  0  0  0  0  0  0  0  0
    0.7859   -4.0013    0.0000 C   0  0  0  0  0  0  0  0  0  0  0  0
    1.5004   -2.7638    0.0000 C   0  0  0  0  0  0  0  0  0  0  0  0
    0.0714   -2.7638    0.0000 C   0  0  0  0  0  0  0  0  0  0  0  0
    1.5004   -3.5888    0.0000 C   0  0  0  0  0  0  0  0  0  0  0  0
    0.0714   -3.5888    0.0000 C   0  0  0  0  0  0  0  0  0  0  0  0
    0.0714    3.0112    0.0000 C   0  0  0  0  0  0  0  0  0  0  0  0
   -1.3575    3.8363    0.0000 C   0  0  0  0  0  0  0  0  0  0  0  0
    0.0714    3.8363    0.0000 C   0  0  0  0  0  0  0  0  0  0  0  0
   -0.6430    4.2488    0.0000 C   0  0  0  0  0  0  0  0  0  0  0  0
    0.0714   -1.1138    0.0000 C   0  0  0  0  0  0  0  0  0  0  0  0
    0.0714    1.3612    0.0000 C   0  0  0  0  0  0  0  0  0  0  0  0
    0.0714   -0.2888    0.0000 C   0  0  0  0  0  0  0  0  0  0  0  0
   -2.0720    2.5988    0.0000 C   0  0  0  0  0  0  0  0  0  0  0  0
    0.0714    0.5362    0.0000 C   0  0  0  0  0  0  0  0  0  0  0  0
  1  7  1  0
  2  4  1  0
  2 16  1  0
  3  5  1  0
  3 17  1  0
  4  8  2  0
  4  9  1  0
  5  6  1  0
  5 12  1  0
  6 13  1  0
  6 19  1  0
  7 10  2  0
  7 11  1  0
  8 10  1  0
  9 11  2  0
 12 14  1  0
 13 15  1  0
 14 15  1  0
 16 18  1  0
 17 20  1  0
 18 20  3  0
M  END

> <chembl_id>
CHEMBL1623535

> <chembl_pref_name>
None

$$$$

     RDKit          2D

 26 27  0  0  0  0  0  0  0  0999 V2000
   -0.1208   -2.0000    0.0000 N   0  0  0  0  0  0  0  0  0  0  0  0
    0.4042   -2.2917    0.0000 C   0  0  0  0  0  0  0  0  0  0  0  0
   -0.1208   -1.4000    0.0000 C   0  0  0  0  0  0  0  0  0  0  0  0
    0.9233   -2.5801    0.0000 N   0  0  0  0  0  0  0  0  0  0  0  0
   -0.6458   -1.1000    0.0000 N   0  0  0  0  0  0  0  0  0  0  0  0
   -2.1958   -2.0125    0.0000 N   0  0  0  0  0  0  0  0  0  0  0  0
    4.5417   -0.4625    0.0000 C   0  0  0  0  0  0  0  0  0  0  0  0
    4.5500   -1.0542    0.0000 C   0  0  0  0  0  0  0  0  0  0  0  0
    0.3917   -1.0917    0.0000 N   0  0  0  0  0  0  0  0  0  0  0  0
   -1.1583   -1.4042    0.0000 C   0  0  0  0  0  0  0  0  0  0  0  0
    4.0167   -0.1542    0.0000 Cl  0  0  0  0  0  0  0  0  0  0  0  0
   -1.6833   -1.1042    0.0000 C   0  0  0  0  0  0  0  0  0  0  0  0
   -1.1583   -2.0125    0.0000 C   0  0  0  0  0  0  0  0  0  0  0  0
    4.0292   -1.3625    0.0000 O   0  0  0  0  0  0  0  0  0  0  0  0
   -1.6833   -2.3125    0.0000 C   0  0  0  0  0  0  0  0  0  0  0  0
   -2.1958   -1.4125    0.0000 C   0  0  0  0  0  0  0  0  0  0  0  0
    5.0542   -0.1542    0.0000 C   0  0  0  0  0  0  0  0  0  0  0  0
    0.9167   -1.3917    0.0000 C   0  0  0  0  0  0  0  0  0  0  0  0
    5.0667   -1.3542    0.0000 C   0  0  0  0  0  0  0  0  0  0  0  0
    3.5125   -1.0667    0.0000 C   0  0  0  0  0  0  0  0  0  0  0  0
    1.4292   -1.0875    0.0000 C   0  0  0  0  0  0  0  0  0  0  0  0
    2.9917   -1.3667    0.0000 C   0  0  0  0  0  0  0  0  0  0  0  0
    1.9542   -1.3792    0.0000 C   0  0  0  0  0  0  0  0  0  0  0  0
    2.4750   -1.0750    0.0000 C   0  0  0  0  0  0  0  0  0  0  0  0
    5.5792   -0.4500    0.0000 C   0  0  0  0  0  0  0  0  0  0  0  0
    5.5875   -1.0500    0.0000 C   0  0  0  0  0  0  0  0  0  0  0  0
  2  1  1  0
  3  1  1  0
  4  2  3  0
  5  3  1  0
  6 15  2  0
  7  8  1  0
  8 14  1  0
  9  3  2  0
 10  5  1  0
 11  7  1  0
 12 10  1  0
 13 10  2  0
 14 20  1  0
 15 13  1  0
 16 12  2  0
 17  7  2  0
 18  9  1  0
 19  8  2  0
 20 22  1  0
 21 18  1  0
 22 24  1  0
 23 21  1  0
 24 23  1  0
 25 26  2  0
 26 19  1  0
 16  6  1  0
 17 25  1  0
M  END

> <chembl_id>
CHEMBL104069

> <chembl_pref_name>
None

$$$$

     RDKit          2D

 35 35  0  0  0  0  0  0  0  0999 V2000
    6.4970   -2.7815    0.0000 C   0  0  0  0  0  0  0  0  0  0  0  0
   -0.3565   -1.7541    0.0000 C   0  0  0  0  0  0  0  0  0  0  0  0
    6.0767   -3.4977    0.0000 C   0  0  0  0  0  0  0  0  0  0  0  0
    6.0884   -2.0616    0.0000 C   0  0  0  0  0  0  0  0  0  0  0  0
    4.8391   -2.7738    0.0000 C   0  0  0  0  0  0  0  0  0  0  0  0
    7.2092   -2.3652    0.0000 C   0  0  0  0  0  0  0  0  0  0  0  0
    5.2555   -3.4860    0.0000 C   0  0  0  0  0  0  0  0  0  0  0  0
    4.1346   -3.1941    0.0000 N   0  0  0  0  0  0  0  0  0  0  0  0
    5.2555   -2.0616    0.0000 C   0  0  0  0  0  0  0  0  0  0  0  0
    0.0482   -2.4702    0.0000 C   0  0  0  0  0  0  0  0  0  0  0  0
    3.4224   -2.7815    0.0000 C   0  0  0  0  0  0  0  0  0  0  0  0
    0.8811   -2.4819    0.0000 C   0  0  0  0  0  0  0  0  0  0  0  0
    7.2053   -1.5362    0.0000 O   0  0  0  0  0  0  0  0  0  0  0  0
    3.4147   -1.9565    0.0000 O   0  0  0  0  0  0  0  0  0  0  0  0
    7.9214   -2.7738    0.0000 N   0  0  0  0  0  0  0  0  0  0  0  0
   -0.7301   -1.1003    0.0000 F   0  0  0  0  0  0  0  0  0  0  0  0
   -0.0452   -0.9524    0.0000 F   0  0  0  0  0  0  0  0  0  0  0  0
   -1.2088   -1.6140    0.0000 F   0  0  0  0  0  0  0  0  0  0  0  0
    1.9980   -2.7855    0.0000 O   0  0  0  0  0  0  0  0  0  0  0  0
    2.7102   -3.1941    0.0000 C   0  0  0  0  0  0  0  0  0  0  0  0
    4.6717   -1.4778    0.0000 Cl  0  0  0  0  0  0  0  0  0  0  0  0
    1.2858   -3.2019    0.0000 C   0  0  0  0  0  0  0  0  0  0  0  0
    6.4853   -4.2099    0.0000 O   0  0  0  0  0  0  0  0  0  0  0  0
   10.1398   -2.1550    0.0000 N   0  0  0  0  0  0  0  0  0  0  0  0
    8.6336   -2.3612    0.0000 C   0  0  0  0  0  0  0  0  0  0  0  0
   -0.3682   -3.1824    0.0000 C   0  0  0  0  0  0  0  0  0  0  0  0
    0.0404   -3.9024    0.0000 C   0  0  0  0  0  0  0  0  0  0  0  0
    9.4276   -2.5714    0.0000 C   0  0  0  0  0  0  0  0  0  0  0  0
    0.8655   -3.9063    0.0000 C   0  0  0  0  0  0  0  0  0  0  0  0
   10.5484   -1.4389    0.0000 C   0  0  0  0  0  0  0  0  0  0  0  0
   10.7196   -2.7348    0.0000 C   0  0  0  0  0  0  0  0  0  0  0  0
    7.3104   -4.2176    0.0000 C   0  0  0  0  0  0  0  0  0  0  0  0
   11.5408   -2.7348    0.0000 C   0  0  0  0  0  0  0  0  0  0  0  0
   11.3735   -1.4389    0.0000 C   0  0  0  0  0  0  0  0  0  0  0  0
    1.6500   -5.6571    0.0000 Cl  0  0  0  0  0  0  0  0  0  0  0  0
  2 10  1  0
  3  1  1  0
  4  1  2  0
  5  9  2  0
  6  1  1  0
  7  3  2  0
  8  5  1  0
  9  4  1  0
 10 12  1  0
 11  8  1  0
 12 22  2  0
 13  6  2  0
 14 11  2  0
 15  6  1  0
 16  2  1  0
 17  2  1  0
 18  2  1  0
 19 20  1  0
 20 11  1  0
 21  9  1  0
 22 19  1  0
 23  3  1  0
 24 28  1  0
 25 15  1  0
 26 27  1  0
 27 29  2  0
 28 25  1  0
 29 22  1  0
 30 24  1  0
 31 24  1  0
 32 23  1  0
 33 31  1  0
 34 30  1  0
  7  5  1  0
 26 10  2  0
M  END

> <chembl_id>
CHEMBL1743902

> <chembl_pref_name>
None

$$$$

     RDKit          2D

 52 58  0  0  0  0  0  0  0  0999 V2000
    9.7228   -4.9903    0.0000 N   0  0  0  0  0  0  0  0  0  0  0  0
    9.7228   -5.8158    0.0000 C   0  0  0  0  0  0  0  0  0  0  0  0
   10.4339   -6.2217    0.0000 C   0  0  0  0  0  0  0  0  0  0  0  0
   10.4339   -4.5752    0.0000 C   0  0  0  0  0  0  0  0  0  0  0  0
   11.1448   -4.9903    0.0000 C   0  0  0  0  0  0  0  0  0  0  0  0
   11.1497   -5.8119    0.0000 C   0  0  0  0  0  0  0  0  0  0  0  0
   11.9334   -6.0623    0.0000 C   0  0  0  0  0  0  0  0  0  0  0  0
   12.4123   -5.3958    0.0000 C   0  0  0  0  0  0  0  0  0  0  0  0
   11.9254   -4.7307    0.0000 S   0  0  0  0  0  0  0  0  0  0  0  0
   13.2378   -5.3908    0.0000 N   0  0  0  0  0  0  0  0  0  0  0  0
   12.3270   -6.7874    0.0000 C   0  0  0  0  0  0  0  0  0  0  0  0
   11.8956   -7.4884    0.0000 C   0  0  0  0  0  0  0  0  0  0  0  0
   13.1522   -6.8072    0.0000 O   0  0  0  0  0  0  0  0  0  0  0  0
   11.0726   -7.4638    0.0000 C   0  0  0  0  0  0  0  0  0  0  0  0
   10.6368   -8.1640    0.0000 C   0  0  0  0  0  0  0  0  0  0  0  0
   11.0304   -8.8906    0.0000 C   0  0  0  0  0  0  0  0  0  0  0  0
   11.8603   -8.9124    0.0000 C   0  0  0  0  0  0  0  0  0  0  0  0
   12.2876   -8.2068    0.0000 C   0  0  0  0  0  0  0  0  0  0  0  0
    9.8162   -8.1437    0.0000 Cl  0  0  0  0  0  0  0  0  0  0  0  0
   10.6000   -9.5969    0.0000 Cl  0  0  0  0  0  0  0  0  0  0  0  0
    9.0014   -4.5809    0.0000 C   0  0  0  0  0  0  0  0  0  0  0  0
    8.2911   -5.0017    0.0000 C   0  0  0  0  0  0  0  0  0  0  0  0
   -1.4139   -9.8057    0.0000 C   0  0  0  0  0  0  0  0  0  0  0  0
   -0.5883   -9.8057    0.0000 C   0  0  0  0  0  0  0  0  0  0  0  0
   -0.3301   -9.0203    0.0000 C   0  0  0  0  0  0  0  0  0  0  0  0
   -0.9988   -8.5331    0.0000 O   0  0  0  0  0  0  0  0  0  0  0  0
   -1.6675   -9.0203    0.0000 C   0  0  0  0  0  0  0  0  0  0  0  0
   -2.3853   -8.6061    0.0000 C   0  0  0  0  0  0  0  0  0  0  0  0
   -2.3841   -7.7806    0.0000 O   0  0  0  0  0  0  0  0  0  0  0  0
    0.3785   -8.6015    0.0000 N   0  0  0  0  0  0  0  0  0  0  0  0
   -1.9000  -10.4716    0.0000 O   0  0  0  0  0  0  0  0  0  0  0  0
   -0.1041  -10.4729    0.0000 O   0  0  0  0  0  0  0  0  0  0  0  0
    0.3762   -7.2668    0.0000 N   0  0  0  0  0  0  0  0  0  0  0  0
   -0.1053   -7.9360    0.0000 C   0  0  0  0  0  0  0  0  0  0  0  0
    1.1633   -7.5189    0.0000 C   0  0  0  0  0  0  0  0  0  0  0  0
    1.1647   -8.3442    0.0000 C   0  0  0  0  0  0  0  0  0  0  0  0
    1.8776   -8.7513    0.0000 N   0  0  0  0  0  0  0  0  0  0  0  0
    2.5896   -8.3390    0.0000 C   0  0  0  0  0  0  0  0  0  0  0  0
    2.5839   -7.5103    0.0000 N   0  0  0  0  0  0  0  0  0  0  0  0
    1.8703   -7.1027    0.0000 C   0  0  0  0  0  0  0  0  0  0  0  0
    1.8649   -6.2773    0.0000 N   0  0  0  0  0  0  0  0  0  0  0  0
    2.5759   -5.8621    0.0000 C   0  0  0  0  0  0  0  0  0  0  0  0
    3.2993   -6.2719    0.0000 C   0  0  0  0  0  0  0  0  0  0  0  0
    4.0097   -5.8575    0.0000 C   0  0  0  0  0  0  0  0  0  0  0  0
    4.0048   -5.0311    0.0000 C   0  0  0  0  0  0  0  0  0  0  0  0
    3.2831   -4.6255    0.0000 C   0  0  0  0  0  0  0  0  0  0  0  0
    2.5759   -5.0424    0.0000 C   0  0  0  0  0  0  0  0  0  0  0  0
    4.7152   -4.6150    0.0000 O   0  0  0  0  0  0  0  0  0  0  0  0
    5.4321   -5.0197    0.0000 C   0  0  0  0  0  0  0  0  0  0  0  0
    6.1469   -4.6037    0.0000 C   0  0  0  0  0  0  0  0  0  0  0  0
    6.8639   -5.0130    0.0000 C   0  0  0  0  0  0  0  0  0  0  0  0
    7.5742   -4.5923    0.0000 C   0  0  0  0  0  0  0  0  0  0  0  0
  1  2  1  0
 24 25  1  0
 25 26  1  0
 26 27  1  0
 27 23  1  0
 11 13  2  0
 27 28  1  1
  1  4  1  0
 28 29  1  0
 12 14  2  0
 25 30  1  1
  2  3  1  0
 23 31  1  6
 14 15  1  0
 24 32  1  6
 30 36  1  0
  3  6  1  0
 15 16  2  0
 35 33  1  0
 33 34  2  0
 34 30  1  0
  6  7  1  0
 16 17  1  0
 35 36  2  0
  7  8  2  0
 36 37  1  0
 17 18  2  0
 37 38  2  0
 18 12  1  0
 38 39  1  0
  8  9  1  0
 39 40  2  0
 40 35  1  0
 15 19  1  0
 40 41  1  0
  9  5  1  0
 41 42  1  0
 16 20  1  0
 42 43  2  0
  5  4  1  0
 43 44  1  0
 21  1  1  0
 44 45  2  0
  8 10  1  0
 45 46  1  0
 22 21  1  0
 46 47  2  0
 47 42  1  0
 23 24  1  0
 45 48  1  0
  5  6  2  0
 48 49  1  0
  7 11  1  0
 49 50  1  0
 50 51  1  0
 11 12  1  0
 51 52  1  0
 52 22  1  0
M  END

> <chembl_id>
CHEMBL1090684

> <chembl_pref_name>
None

$$$$

     RDKit          2D

 23 25  0  0  0  0  0  0  0  0999 V2000
   -0.5192    1.5475    0.0000 O   0  0  0  0  0  0  0  0  0  0  0  0
   -3.6891   -0.0732    0.0000 O   0  0  0  0  0  0  0  0  0  0  0  0
   -1.9712    5.0775    0.0000 O   0  0  0  0  0  0  0  0  0  0  0  0
   -1.9712    1.7775    0.0000 N   0  0  0  0  0  0  0  0  0  0  0  0
   -2.5331   -0.9131    0.0000 N   0  0  0  0  0  0  0  0  0  0  0  0
   -1.8620   -2.4205    0.0000 N   0  0  0  0  0  0  0  0  0  0  0  0
   -2.3837    0.5080    0.0000 C   0  0  0  0  0  0  0  0  0  0  0  0
   -1.3038    1.2926    0.0000 C   0  0  0  0  0  0  0  0  0  0  0  0
   -2.8686   -0.1595    0.0000 C   0  0  0  0  0  0  0  0  0  0  0  0
   -2.6387    1.2926    0.0000 C   0  0  0  0  0  0  0  0  0  0  0  0
   -1.9712    2.6025    0.0000 C   0  0  0  0  0  0  0  0  0  0  0  0
   -1.5587    0.5080    0.0000 C   0  0  0  0  0  0  0  0  0  0  0  0
   -2.6857    3.0150    0.0000 C   0  0  0  0  0  0  0  0  0  0  0  0
   -1.2568    3.0150    0.0000 C   0  0  0  0  0  0  0  0  0  0  0  0
   -1.7126   -0.9994    0.0000 C   0  0  0  0  0  0  0  0  0  0  0  0
   -3.0180   -1.5806    0.0000 C   0  0  0  0  0  0  0  0  0  0  0  0
   -1.9712    4.2525    0.0000 C   0  0  0  0  0  0  0  0  0  0  0  0
   -2.6857    3.8400    0.0000 C   0  0  0  0  0  0  0  0  0  0  0  0
   -1.2568    3.8400    0.0000 C   0  0  0  0  0  0  0  0  0  0  0  0
   -1.3770   -1.7530    0.0000 C   0  0  0  0  0  0  0  0  0  0  0  0
   -2.6825   -2.3342    0.0000 C   0  0  0  0  0  0  0  0  0  0  0  0
   -1.5264   -3.1742    0.0000 C   0  0  0  0  0  0  0  0  0  0  0  0
   -2.6857    5.4900    0.0000 C   0  0  0  0  0  0  0  0  0  0  0  0
  1  8  2  0
  2  9  2  0
  3 17  1  0
  3 23  1  0
  4  8  1  0
  4 10  1  0
  4 11  1  0
  5  9  1  0
  5 15  1  0
  5 16  1  0
  6 20  1  0
  6 21  1  0
  6 22  1  0
  7  9  1  0
  7 10  1  0
  7 12  1  0
  8 12  1  0
 11 13  2  0
 11 14  1  0
 13 18  1  0
 14 19  2  0
 15 20  1  0
 16 21  1  0
 17 18  2  0
 17 19  1  0
M  END

> <chembl_id>
CHEMBL1340624

> <chembl_pref_name>
None

$$$$

     RDKit          2D

 33 35  0  0  0  0  0  0  0  0999 V2000
    4.7521  -19.7049    0.0000 C   0  0  0  0  0  0  0  0  0  0  0  0
    4.7491  -20.5346    0.0000 C   0  0  0  0  0  0  0  0  0  0  0  0
    5.4601  -20.9459    0.0000 N   0  0  0  0  0  0  0  0  0  0  0  0
    5.4615  -19.2940    0.0000 O   0  0  0  0  0  0  0  0  0  0  0  0
    6.1860  -18.0551    0.0000 C   0  0  0  0  0  0  0  0  0  0  0  0
    5.4621  -18.4657    0.0000 C   0  0  0  0  0  0  0  0  0  0  0  0
    6.8680  -21.7856    0.0000 C   0  0  0  0  0  0  0  0  0  0  0  0
    4.7494  -18.0502    0.0000 O   0  0  0  0  0  0  0  0  0  0  0  0
    6.1643  -20.5402    0.0000 C   0  0  0  0  0  0  0  0  0  0  0  0
    6.8801  -20.9620    0.0000 C   0  0  0  0  0  0  0  0  0  0  0  0
    7.6047  -20.5487    0.0000 C   0  0  0  0  0  0  0  0  0  0  0  0
    7.6084  -19.7209    0.0000 C   0  0  0  0  0  0  0  0  0  0  0  0
    6.1683  -19.7152    0.0000 O   0  0  0  0  0  0  0  0  0  0  0  0
    7.5763  -22.2085    0.0000 C   0  0  0  0  0  0  0  0  0  0  0  0
    7.5642  -23.0335    0.0000 N   0  0  0  0  0  0  0  0  0  0  0  0
    8.2968  -21.8066    0.0000 O   0  0  0  0  0  0  0  0  0  0  0  0
    8.2726  -23.4564    0.0000 C   0  0  0  0  0  0  0  0  0  0  0  0
    8.2605  -24.2813    0.0000 C   0  0  0  0  0  0  0  0  0  0  0  0
    7.5385  -24.6785    0.0000 C   0  0  0  0  0  0  0  0  0  0  0  0
    7.5261  -25.5026    0.0000 C   0  0  0  0  0  0  0  0  0  0  0  0
    8.2350  -25.9264    0.0000 C   0  0  0  0  0  0  0  0  0  0  0  0
    8.9579  -25.5200    0.0000 C   0  0  0  0  0  0  0  0  0  0  0  0
    8.9668  -24.6972    0.0000 C   0  0  0  0  0  0  0  0  0  0  0  0
    8.2240  -26.7513    0.0000 Cl  0  0  0  0  0  0  0  0  0  0  0  0
    8.2295  -19.2121    0.0000 C   0  0  0  0  0  0  0  0  0  0  0  0
    6.8968  -18.4823    0.0000 C   0  0  0  0  0  0  0  0  0  0  0  0
    7.7042  -18.2458    0.0000 C   0  0  0  0  0  0  0  0  0  0  0  0
    4.0381  -19.2916    0.0000 C   0  0  0  0  0  0  0  0  0  0  0  0
    4.0424  -18.4696    0.0000 C   0  0  0  0  0  0  0  0  0  0  0  0
    3.3292  -18.0564    0.0000 C   0  0  0  0  0  0  0  0  0  0  0  0
    2.6133  -18.4682    0.0000 C   0  0  0  0  0  0  0  0  0  0  0  0
    2.6150  -19.2975    0.0000 C   0  0  0  0  0  0  0  0  0  0  0  0
    3.3288  -19.7070    0.0000 C   0  0  0  0  0  0  0  0  0  0  0  0
  3  9  1  0
 15 17  1  0
  6  8  2  0
 17 18  1  0
 18 19  2  0
  1  2  1  0
 19 20  1  0
  9 10  1  0
 20 21  2  0
  1  4  1  0
 21 22  1  0
 10 11  1  0
 22 23  2  0
 23 18  1  0
  4  6  1  0
 21 24  1  0
 11 12  1  0
 12 25  2  0
 26  5  1  0
  9 13  2  0
 25 27  1  0
 26 27  1  0
  5  6  1  0
  1 28  1  6
  7 14  1  0
 28 29  2  0
  2  3  1  0
 29 30  1  0
 14 15  1  0
 30 31  2  0
 10  7  1  1
 31 32  1  0
 14 16  2  0
 32 33  2  0
 33 28  1  0
M  END

> <chembl_id>
CHEMBL1080649

> <chembl_pref_name>
None

$$$$

     RDKit          2D

 25 28  0  0  0  0  0  0  0  0999 V2000
    6.6319   -5.7333    0.0000 C   0  0  0  0  0  0  0  0  0  0  0  0
    6.6307   -6.5607    0.0000 C   0  0  0  0  0  0  0  0  0  0  0  0
    7.3456   -6.9735    0.0000 C   0  0  0  0  0  0  0  0  0  0  0  0
    7.3438   -5.3205    0.0000 C   0  0  0  0  0  0  0  0  0  0  0  0
    8.0591   -5.7297    0.0000 C   0  0  0  0  0  0  0  0  0  0  0  0
    8.0640   -6.5607    0.0000 C   0  0  0  0  0  0  0  0  0  0  0  0
    8.8559   -6.8125    0.0000 C   0  0  0  0  0  0  0  0  0  0  0  0
    9.3405   -6.1377    0.0000 C   0  0  0  0  0  0  0  0  0  0  0  0
    8.8469   -5.4692    0.0000 N   0  0  0  0  0  0  0  0  0  0  0  0
    9.2692   -7.5266    0.0000 S   0  0  0  0  0  0  0  0  0  0  0  0
    8.8575   -8.2415    0.0000 C   0  0  0  0  0  0  0  0  0  0  0  0
    9.7181   -6.8332    0.0000 O   0  0  0  0  0  0  0  0  0  0  0  0
    9.9561   -7.9795    0.0000 O   0  0  0  0  0  0  0  0  0  0  0  0
    8.0354   -8.2393    0.0000 C   0  0  0  0  0  0  0  0  0  0  0  0
    7.6237   -8.9534    0.0000 C   0  0  0  0  0  0  0  0  0  0  0  0
    8.0371   -9.6684    0.0000 C   0  0  0  0  0  0  0  0  0  0  0  0
    8.8663   -9.6649    0.0000 C   0  0  0  0  0  0  0  0  0  0  0  0
    9.2742   -8.9502    0.0000 C   0  0  0  0  0  0  0  0  0  0  0  0
    9.3273   -4.7964    0.0000 C   0  0  0  0  0  0  0  0  0  0  0  0
   10.1523   -4.7936    0.0000 C   0  0  0  0  0  0  0  0  0  0  0  0
   10.4033   -4.0080    0.0000 N   0  0  0  0  0  0  0  0  0  0  0  0
    9.7355   -3.5254    0.0000 C   0  0  0  0  0  0  0  0  0  0  0  0
    9.0698   -4.0127    0.0000 C   0  0  0  0  0  0  0  0  0  0  0  0
    9.2821  -10.3774    0.0000 F   0  0  0  0  0  0  0  0  0  0  0  0
    5.9173   -5.3210    0.0000 Cl  0  0  0  0  0  0  0  0  0  0  0  0
 10 12  2  0
  2  3  1  0
 10 13  2  0
  3  6  2  0
 11 14  2  0
  1  2  2  0
 14 15  1  0
  5  4  2  0
 15 16  2  0
  6  7  1  0
 16 17  1  0
  7  8  2  0
 17 18  2  0
 18 11  1  0
 19 20  1  0
  8  9  1  0
  9  5  1  0
  4  1  1  0
  7 10  1  0
  5  6  1  0
 20 21  1  0
 21 22  1  0
 22 23  1  0
 23 19  1  0
  9 19  1  0
 10 11  1  0
 17 24  1  0
  1 25  1  0
M  END

> <chembl_id>
CHEMBL1080694

> <chembl_pref_name>
None

$$$$

     RDKit          2D

 29 31  0  0  0  0  0  0  0  0999 V2000
    4.8631   -1.2019    0.0000 Cl  0  0  0  0  0  0  0  0  0  0  0  0
    1.6416   -0.2664    0.0000 O   0  0  0  0  0  0  0  0  0  0  0  0
    1.6416    1.1625    0.0000 O   0  0  0  0  0  0  0  0  0  0  0  0
    4.4681   -1.4456    0.0000 O   0  0  0  0  0  0  0  0  0  0  0  0
   -0.0767   -3.8724    0.0000 O   0  0  0  0  0  0  0  0  0  0  0  0
   -0.3738   -2.4747    0.0000 O   0  0  0  0  0  0  0  0  0  0  0  0
    3.3640    1.1155    0.0000 N   0  0  0  0  0  0  0  0  0  0  0  0
    3.1091   -1.0040    0.0000 N   0  0  0  0  0  0  0  0  0  0  0  0
    2.5992   -2.5732    0.0000 N   0  0  0  0  0  0  0  0  0  0  0  0
    0.9852   -2.9163    0.0000 N   0  0  0  0  0  0  0  0  0  0  0  0
    4.1486    0.0356    0.0000 C   0  0  0  0  0  0  0  0  0  0  0  0
    3.3640   -0.2194    0.0000 C   0  0  0  0  0  0  0  0  0  0  0  0
    2.8791    0.4481    0.0000 C   0  0  0  0  0  0  0  0  0  0  0  0
    4.1486    0.8606    0.0000 C   0  0  0  0  0  0  0  0  0  0  0  0
    4.8631   -0.3769    0.0000 C   0  0  0  0  0  0  0  0  0  0  0  0
    2.0541    0.4481    0.0000 C   0  0  0  0  0  0  0  0  0  0  0  0
    4.8631    1.2731    0.0000 C   0  0  0  0  0  0  0  0  0  0  0  0
    5.5776    0.0356    0.0000 C   0  0  0  0  0  0  0  0  0  0  0  0
    3.6611   -1.6171    0.0000 C   0  0  0  0  0  0  0  0  0  0  0  0
    5.5776    0.8606    0.0000 C   0  0  0  0  0  0  0  0  0  0  0  0
    3.4062   -2.4017    0.0000 C   0  0  0  0  0  0  0  0  0  0  0  0
    2.3442   -3.3579    0.0000 C   0  0  0  0  0  0  0  0  0  0  0  0
    2.0472   -1.9601    0.0000 C   0  0  0  0  0  0  0  0  0  0  0  0
    1.5373   -3.5294    0.0000 C   0  0  0  0  0  0  0  0  0  0  0  0
    1.2402   -2.1317    0.0000 C   0  0  0  0  0  0  0  0  0  0  0  0
    0.1783   -3.0878    0.0000 C   0  0  0  0  0  0  0  0  0  0  0  0
    0.8166   -0.2664    0.0000 C   0  0  0  0  0  0  0  0  0  0  0  0
   -0.8836   -4.0440    0.0000 C   0  0  0  0  0  0  0  0  0  0  0  0
   -1.1386   -4.8286    0.0000 C   0  0  0  0  0  0  0  0  0  0  0  0
  1 15  1  0
  2 16  1  0
  2 27  1  0
  3 16  2  0
  4 19  2  0
  5 26  1  0
  5 28  1  0
  6 26  2  0
  7 13  1  0
  7 14  1  0
  8 12  1  0
  8 19  1  0
  9 21  1  0
  9 22  1  0
  9 23  1  0
 10 24  1  0
 10 25  1  0
 10 26  1  0
 11 12  1  0
 11 14  1  0
 11 15  2  0
 12 13  2  0
 13 16  1  0
 14 17  2  0
 15 18  1  0
 17 20  1  0
 18 20  2  0
 19 21  1  0
 22 24  1  0
 23 25  1  0
 28 29  1  0
M  END

> <chembl_id>
CHEMBL1400894

> <chembl_pref_name>
None

$$$$

     RDKit          2D

 94 95  0  0  0  0  0  0  0  0999 V2000
    9.6804   -2.5119    0.0000 N   0  0  0  0  0  0  0  0  0  0  0  0
    8.5789   -2.8708    0.0000 C   0  0  0  0  0  0  0  0  0  0  0  0
    3.3298    0.2670    0.0000 C   0  0  0  0  0  0  0  0  0  0  0  0
    4.0432   -0.1461    0.0000 C   0  0  0  0  0  0  0  0  0  0  0  0
   12.6304    1.5021    0.0000 N   0  0  0  0  0  0  0  0  0  0  0  0
   10.4816    1.0890    0.0000 N   0  0  0  0  0  0  0  0  0  0  0  0
    2.6162   -0.1419    0.0000 N   0  0  0  0  0  0  0  0  0  0  0  0
   12.6304   -0.1544    0.0000 N   0  0  0  0  0  0  0  0  0  0  0  0
   10.2187   -1.8902    0.0000 C   0  0  0  0  0  0  0  0  0  0  0  0
   11.5622   -1.4104    0.0000 N   0  0  0  0  0  0  0  0  0  0  0  0
    8.3326    1.5021    0.0000 N   0  0  0  0  0  0  0  0  0  0  0  0
   11.9128    1.0890    0.0000 C   0  0  0  0  0  0  0  0  0  0  0  0
   13.3482    0.2629    0.0000 C   0  0  0  0  0  0  0  0  0  0  0  0
    9.7681    1.5021    0.0000 C   0  0  0  0  0  0  0  0  0  0  0  0
   12.3758   -1.5606    0.0000 C   0  0  0  0  0  0  0  0  0  0  0  0
    7.6150    1.0890    0.0000 C   0  0  0  0  0  0  0  0  0  0  0  0
    1.9069    0.2712    0.0000 C   0  0  0  0  0  0  0  0  0  0  0  0
    7.6150   -2.2156    0.0000 C   0  0  0  0  0  0  0  0  0  0  0  0
   11.1951    1.5021    0.0000 C   0  0  0  0  0  0  0  0  0  0  0  0
   13.3482    1.0890    0.0000 C   0  0  0  0  0  0  0  0  0  0  0  0
    6.1838    0.2629    0.0000 C   0  0  0  0  0  0  0  0  0  0  0  0
    4.7568    0.2670    0.0000 N   0  0  0  0  0  0  0  0  0  0  0  0
    6.8973   -0.1544    0.0000 N   0  0  0  0  0  0  0  0  0  0  0  0
   11.0248   -2.0392    0.0000 C   0  0  0  0  0  0  0  0  0  0  0  0
   12.9100   -0.9305    0.0000 C   0  0  0  0  0  0  0  0  0  0  0  0
    9.0504    1.0890    0.0000 C   0  0  0  0  0  0  0  0  0  0  0  0
    7.6150    0.2629    0.0000 C   0  0  0  0  0  0  0  0  0  0  0  0
    0.4799    0.2754    0.0000 N   0  0  0  0  0  0  0  0  0  0  0  0
    5.4703   -0.1461    0.0000 C   0  0  0  0  0  0  0  0  0  0  0  0
    7.6150   -1.3895    0.0000 N   0  0  0  0  0  0  0  0  0  0  0  0
    1.1934   -0.1377    0.0000 C   0  0  0  0  0  0  0  0  0  0  0  0
   -0.2336   -0.1377    0.0000 C   0  0  0  0  0  0  0  0  0  0  0  0
    4.0432   -0.9680    0.0000 O   0  0  0  0  0  0  0  0  0  0  0  0
    9.9433   -1.1141    0.0000 O   0  0  0  0  0  0  0  0  0  0  0  0
   11.9128    0.2629    0.0000 O   0  0  0  0  0  0  0  0  0  0  0  0
   14.0617   -0.1544    0.0000 O   0  0  0  0  0  0  0  0  0  0  0  0
    6.8973    1.5021    0.0000 O   0  0  0  0  0  0  0  0  0  0  0  0
   12.6513   -2.3408    0.0000 O   0  0  0  0  0  0  0  0  0  0  0  0
    9.7681    2.3283    0.0000 O   0  0  0  0  0  0  0  0  0  0  0  0
   11.1951    2.3283    0.0000 C   0  0  0  0  0  0  0  0  0  0  0  0
    1.9069    1.0931    0.0000 O   0  0  0  0  0  0  0  0  0  0  0  0
    6.1838    1.0848    0.0000 O   0  0  0  0  0  0  0  0  0  0  0  0
    6.9015   -2.6246    0.0000 O   0  0  0  0  0  0  0  0  0  0  0  0
   14.0617    1.5021    0.0000 C   0  0  0  0  0  0  0  0  0  0  0  0
    8.5600   -3.7557    0.0000 C   0  0  0  0  0  0  0  0  0  0  0  0
    3.3340    1.0931    0.0000 C   0  0  0  0  0  0  0  0  0  0  0  0
   -0.2336   -0.9597    0.0000 O   0  0  0  0  0  0  0  0  0  0  0  0
    8.3326   -0.1544    0.0000 C   0  0  0  0  0  0  0  0  0  0  0  0
    8.3326   -0.9806    0.0000 C   0  0  0  0  0  0  0  0  0  0  0  0
   13.7407   -0.9388    0.0000 C   0  0  0  0  0  0  0  0  0  0  0  0
    9.0504    0.2629    0.0000 C   0  0  0  0  0  0  0  0  0  0  0  0
   11.4889   -2.7433    0.0000 C   0  0  0  0  0  0  0  0  0  0  0  0
    5.4660   -0.9680    0.0000 C   0  0  0  0  0  0  0  0  0  0  0  0
    1.1934   -0.9638    0.0000 C   0  0  0  0  0  0  0  0  0  0  0  0
   11.9128    2.7455    0.0000 C   0  0  0  0  0  0  0  0  0  0  0  0
   11.5910   -4.1557    0.0000 N   0  0  0  0  0  0  0  0  0  0  0  0
    1.9027   -2.1990    0.0000 N   0  0  0  0  0  0  0  0  0  0  0  0
   14.9683   -1.6718    0.0000 N   0  0  0  0  0  0  0  0  0  0  0  0
   10.4816    0.2629    0.0000 N   0  0  0  0  0  0  0  0  0  0  0  0
    6.1796   -2.2073    0.0000 N   0  0  0  0  0  0  0  0  0  0  0  0
    9.3172   -4.0380    0.0000 O   0  0  0  0  0  0  0  0  0  0  0  0
    2.6204    1.5021    0.0000 O   0  0  0  0  0  0  0  0  0  0  0  0
   14.7793    1.0890    0.0000 C   0  0  0  0  0  0  0  0  0  0  0  0
   -0.9430    0.2754    0.0000 C   0  0  0  0  0  0  0  0  0  0  0  0
   11.1284   -3.4728    0.0000 C   0  0  0  0  0  0  0  0  0  0  0  0
   14.1417   -1.6627    0.0000 C   0  0  0  0  0  0  0  0  0  0  0  0
    9.7681   -0.1544    0.0000 C   0  0  0  0  0  0  0  0  0  0  0  0
    6.1796   -1.3812    0.0000 C   0  0  0  0  0  0  0  0  0  0  0  0
    1.9027   -1.3728    0.0000 C   0  0  0  0  0  0  0  0  0  0  0  0
    7.8523   -4.0894    0.0000 C   0  0  0  0  0  0  0  0  0  0  0  0
    4.0474    1.5021    0.0000 C   0  0  0  0  0  0  0  0  0  0  0  0
   11.9086    3.5676    0.0000 C   0  0  0  0  0  0  0  0  0  0  0  0
   12.6304    2.3283    0.0000 C   0  0  0  0  0  0  0  0  0  0  0  0
   -3.7929    0.2795    0.0000 C   0  0  0  0  0  0  0  0  0  0  0  0
   -1.6566   -0.1336    0.0000 C   0  0  0  0  0  0  0  0  0  0  0  0
   -4.5064   -0.1252    0.0000 C   0  0  0  0  0  0  0  0  0  0  0  0
   -3.0836   -0.1294    0.0000 C   0  0  0  0  0  0  0  0  0  0  0  0
   14.7793    0.2629    0.0000 C   0  0  0  0  0  0  0  0  0  0  0  0
   15.4970    1.5021    0.0000 C   0  0  0  0  0  0  0  0  0  0  0  0
   -2.3700    0.2795    0.0000 C   0  0  0  0  0  0  0  0  0  0  0  0
   13.3440    2.7414    0.0000 C   0  0  0  0  0  0  0  0  0  0  0  0
   12.6221    3.9806    0.0000 C   0  0  0  0  0  0  0  0  0  0  0  0
   13.3440    3.5676    0.0000 C   0  0  0  0  0  0  0  0  0  0  0  0
    9.2924   -3.2839    0.0000 H   0  0  0  0  0  0  0  0  0  0  0  0
   -5.2136    0.2904    0.0000 C   0  0  0  0  0  0  0  0  0  0  0  0
   12.4154   -4.1721    0.0000 C   0  0  0  0  0  0  0  0  0  0  0  0
   12.8139   -4.8945    0.0000 C   0  0  0  0  0  0  0  0  0  0  0  0
   13.6387   -4.9106    0.0000 C   0  0  0  0  0  0  0  0  0  0  0  0
   14.0372   -5.6329    0.0000 C   0  0  0  0  0  0  0  0  0  0  0  0
   14.8620   -5.6489    0.0000 C   0  0  0  0  0  0  0  0  0  0  0  0
   15.2604   -6.3713    0.0000 C   0  0  0  0  0  0  0  0  0  0  0  0
   16.0853   -6.3874    0.0000 C   0  0  0  0  0  0  0  0  0  0  0  0
   16.4839   -7.1097    0.0000 C   0  0  0  0  0  0  0  0  0  0  0  0
   12.8416   -3.4663    0.0000 N   0  0  0  0  0  0  0  0  0  0  0  0
 11 16  1  0
 12  5  1  0
 13  8  1  0
 14 26  1  0
 15 10  1  0
 16 27  1  0
 17  7  1  0
 18  2  1  0
 19 12  1  0
 20 13  1  0
 21 23  1  0
 29 22  1  6
 27 23  1  6
 24  9  1  0
 25 15  1  0
 26 11  1  0
 27 48  1  0
 31 28  1  6
 29 21  1  0
 30 18  1  0
 31 17  1  0
 32 28  1  0
 33  4  2  0
 34  9  2  0
 35 12  2  0
 36 13  2  0
 37 16  2  0
 38 15  2  0
 39 14  2  0
 19 40  1  6
 41 17  2  0
 42 21  2  0
 43 18  2  0
 20 44  1  1
 45  2  1  0
 46  3  1  0
 47 32  2  0
 48 49  1  0
 49 30  1  0
 25 50  1  1
 26 51  1  6
 24 52  1  1
 29 53  1  0
 31 54  1  0
 55 40  1  0
 56 65  1  0
 57 69  1  0
 58 66  1  0
 59 67  1  0
 60 68  1  0
 45 61  1  6
 46 62  1  6
 63 44  1  0
 64 32  1  0
 65 52  1  0
 66 50  1  0
 67 51  1  0
 68 53  1  0
 69 54  1  0
 70 45  1  0
 71 46  1  0
 72 55  1  0
 73 55  2  0
 74 77  1  0
 75 64  1  0
 76 74  1  0
 77 80  1  0
 78 63  1  0
 79 63  1  0
 80 75  1  0
 81 73  1  0
 82 72  2  0
 83 81  2  0
  2 84  1  6
  6 19  1  0
 82 83  1  0
 76 85  1  0
  2  1  1  0
 56 86  1  0
  3  4  1  0
 86 87  1  0
  4 22  1  0
 87 88  1  0
  5 20  1  0
 88 89  1  0
  6 14  1  0
 89 90  1  0
  3  7  1  1
 90 91  1  0
  8 25  1  0
 91 92  1  0
  9  1  1  0
 92 93  1  0
 10 24  1  0
 86 94  1  0
M  END

> <chembl_id>
CHEMBL1090614

> <chembl_pref_name>
L-ALPHA-NH2-OCTANOYL DAB9 POLYMYXIN B

$$$$

     RDKit          2D

 18 18  0  0  0  0  0  0  0  0999 V2000
    0.7164   -1.5102    0.0000 O   0  0  0  0  0  0  0  0  0  0  0  0
    0.7164   -0.6852    0.0000 O   0  0  0  0  0  0  0  0  0  0  0  0
    2.1454   -3.9852    0.0000 O   0  0  0  0  0  0  0  0  0  0  0  0
    2.1454   -0.6852    0.0000 N   0  0  0  0  0  0  0  0  0  0  0  0
    1.4309   -2.7477    0.0000 N   0  0  0  0  0  0  0  0  0  0  0  0
    2.8598   -2.7477    0.0000 N   0  0  0  0  0  0  0  0  0  0  0  0
    2.1454   -1.5102    0.0000 C   0  0  0  0  0  0  0  0  0  0  0  0
    1.4309   -1.9227    0.0000 C   0  0  0  0  0  0  0  0  0  0  0  0
    1.4309   -0.2727    0.0000 C   0  0  0  0  0  0  0  0  0  0  0  0
    2.8598   -1.9227    0.0000 C   0  0  0  0  0  0  0  0  0  0  0  0
    2.1454   -3.1602    0.0000 C   0  0  0  0  0  0  0  0  0  0  0  0
    1.4309    0.5523    0.0000 C   0  0  0  0  0  0  0  0  0  0  0  0
    0.7164    0.9648    0.0000 C   0  0  0  0  0  0  0  0  0  0  0  0
    2.1454    0.9648    0.0000 C   0  0  0  0  0  0  0  0  0  0  0  0
    0.7164    1.7898    0.0000 C   0  0  0  0  0  0  0  0  0  0  0  0
    2.1454    1.7898    0.0000 C   0  0  0  0  0  0  0  0  0  0  0  0
    0.0019    2.2023    0.0000 C   0  0  0  0  0  0  0  0  0  0  0  0
    2.8598    2.2023    0.0000 C   0  0  0  0  0  0  0  0  0  0  0  0
  1  8  1  0
  2  9  2  0
  3 11  1  0
  4  7  1  0
  4  9  1  0
  5  8  2  0
  5 11  1  0
  6 10  1  0
  6 11  2  0
  7  8  1  0
  7 10  2  0
  9 12  1  0
 12 13  1  0
 12 14  1  0
 13 15  1  0
 14 16  1  0
 15 17  1  0
 16 18  1  0
M  END

> <chembl_id>
CHEMBL1540194

> <chembl_pref_name>
None

$$$$

     RDKit          2D

 30 34  0  0  0  0  0  0  0  0999 V2000
   10.5269  -20.7194    0.0000 C   0  0  0  0  0  0  0  0  0  0  0  0
   10.5257  -21.5460    0.0000 C   0  0  0  0  0  0  0  0  0  0  0  0
   11.2399  -21.9585    0.0000 C   0  0  0  0  0  0  0  0  0  0  0  0
   11.2381  -20.3070    0.0000 C   0  0  0  0  0  0  0  0  0  0  0  0
   11.9539  -21.5414    0.0000 C   0  0  0  0  0  0  0  0  0  0  0  0
   11.9529  -20.7157    0.0000 C   0  0  0  0  0  0  0  0  0  0  0  0
   12.6004  -20.1944    0.0000 O   0  0  0  0  0  0  0  0  0  0  0  0
   13.4094  -20.3718    0.0000 C   0  0  0  0  0  0  0  0  0  0  0  0
   13.7697  -21.1177    0.0000 C   0  0  0  0  0  0  0  0  0  0  0  0
   12.5382  -22.8849    0.0000 S   0  0  0  0  0  0  0  0  0  0  0  0
   13.3027  -23.2067    0.0000 C   0  0  0  0  0  0  0  0  0  0  0  0
   13.8449  -22.5780    0.0000 C   0  0  0  0  0  0  0  0  0  0  0  0
   13.4149  -21.8685    0.0000 C   0  0  0  0  0  0  0  0  0  0  0  0
   12.6073  -22.0583    0.0000 C   0  0  0  0  0  0  0  0  0  0  0  0
   13.3180  -24.0307    0.0000 C   0  0  0  0  0  0  0  0  0  0  0  0
   12.6118  -24.4561    0.0000 N   0  0  0  0  0  0  0  0  0  0  0  0
   14.0393  -24.4296    0.0000 O   0  0  0  0  0  0  0  0  0  0  0  0
   11.8905  -24.0572    0.0000 C   0  0  0  0  0  0  0  0  0  0  0  0
   12.6271  -25.2801    0.0000 C   0  0  0  0  0  0  0  0  0  0  0  0
   11.8777  -23.2340    0.0000 C   0  0  0  0  0  0  0  0  0  0  0  0
   11.1572  -22.8353    0.0000 C   0  0  0  0  0  0  0  0  0  0  0  0
   10.4501  -23.2606    0.0000 C   0  0  0  0  0  0  0  0  0  0  0  0
   10.4681  -24.0890    0.0000 C   0  0  0  0  0  0  0  0  0  0  0  0
   11.1891  -24.4840    0.0000 C   0  0  0  0  0  0  0  0  0  0  0  0
   11.2078  -25.3081    0.0000 Cl  0  0  0  0  0  0  0  0  0  0  0  0
    9.8129  -20.3074    0.0000 C   0  0  0  0  0  0  0  0  0  0  0  0
    9.8250  -19.4838    0.0000 C   0  0  0  0  0  0  0  0  0  0  0  0
    9.0451  -19.2171    0.0000 N   0  0  0  0  0  0  0  0  0  0  0  0
    8.5504  -19.8765    0.0000 N   0  0  0  0  0  0  0  0  0  0  0  0
    9.0246  -20.5507    0.0000 C   0  0  0  0  0  0  0  0  0  0  0  0
 14 10  1  0
  6  7  1  0
 11 15  1  0
  5 14  1  0
 15 16  1  0
  1  2  2  0
 15 17  2  0
  7  8  1  0
 16 18  1  0
  6  4  2  0
 16 19  1  0
  8  9  1  0
 18 20  2  0
 13  9  1  0
 20 21  1  0
 13 14  2  0
 21 22  2  0
  4  1  1  0
 22 23  1  0
 23 24  2  0
 24 18  1  0
 11 12  2  0
 24 25  1  0
  2  3  1  0
  1 26  1  0
 29 30  2  0
  5  6  1  0
 27 28  1  0
  3  5  2  0
 10 11  1  0
 12 13  1  0
 26 27  2  0
 28 29  1  0
 30 26  1  0
M  END

> <chembl_id>
CHEMBL1796757

> <chembl_pref_name>
None

$$$$

     RDKit          2D

 27 29  0  0  0  0  0  0  0  0999 V2000
   13.5238  -24.9058    0.0000 C   0  0  0  0  0  0  0  0  0  0  0  0
   13.5225  -25.7334    0.0000 C   0  0  0  0  0  0  0  0  0  0  0  0
   14.2402  -26.1463    0.0000 C   0  0  0  0  0  0  0  0  0  0  0  0
   14.9548  -25.7328    0.0000 C   0  0  0  0  0  0  0  0  0  0  0  0
   14.9517  -24.9018    0.0000 C   0  0  0  0  0  0  0  0  0  0  0  0
   14.2382  -24.4930    0.0000 C   0  0  0  0  0  0  0  0  0  0  0  0
   15.6677  -24.4901    0.0000 C   0  0  0  0  0  0  0  0  0  0  0  0
   16.3824  -24.9015    0.0000 N   0  0  0  0  0  0  0  0  0  0  0  0
   17.0927  -24.4868    0.0000 C   0  0  0  0  0  0  0  0  0  0  0  0
   17.0944  -23.6608    0.0000 C   0  0  0  0  0  0  0  0  0  0  0  0
   16.3700  -23.2515    0.0000 N   0  0  0  0  0  0  0  0  0  0  0  0
   15.6629  -23.6688    0.0000 C   0  0  0  0  0  0  0  0  0  0  0  0
   17.8046  -23.2489    0.0000 C   0  0  0  0  0  0  0  0  0  0  0  0
   18.5195  -23.6574    0.0000 N   0  0  0  0  0  0  0  0  0  0  0  0
   17.8000  -22.4239    0.0000 O   0  0  0  0  0  0  0  0  0  0  0  0
   18.5241  -24.4824    0.0000 C   0  0  0  0  0  0  0  0  0  0  0  0
   19.2344  -23.2409    0.0000 C   0  0  0  0  0  0  0  0  0  0  0  0
   17.8123  -24.8929    0.0000 C   0  0  0  0  0  0  0  0  0  0  0  0
   17.8165  -25.7170    0.0000 C   0  0  0  0  0  0  0  0  0  0  0  0
   18.5320  -26.1264    0.0000 C   0  0  0  0  0  0  0  0  0  0  0  0
   19.2494  -25.7050    0.0000 N   0  0  0  0  0  0  0  0  0  0  0  0
   19.2413  -24.8824    0.0000 C   0  0  0  0  0  0  0  0  0  0  0  0
   18.5379  -26.9514    0.0000 O   0  0  0  0  0  0  0  0  0  0  0  0
   17.8281  -27.3690    0.0000 C   0  0  0  0  0  0  0  0  0  0  0  0
   15.6728  -26.1441    0.0000 C   0  0  0  0  0  0  0  0  0  0  0  0
   19.2298  -22.4159    0.0000 C   0  0  0  0  0  0  0  0  0  0  0  0
   14.2399  -26.9713    0.0000 C   0  0  0  0  0  0  0  0  0  0  0  0
 10 13  1  0
  1  2  2  0
 13 14  1  0
  3  4  2  0
 13 15  2  0
  7  8  2  0
 14 16  1  0
 14 17  1  0
  8  9  1  0
 16 18  2  0
  4  5  1  0
 18 19  1  0
  9 10  2  0
 19 20  2  0
  2  3  1  0
 20 21  1  0
 10 11  1  0
 21 22  2  0
 22 16  1  0
  5  6  2  0
 20 23  1  0
 11 12  2  0
 23 24  1  0
 12  7  1  0
  4 25  1  0
  5  7  1  0
 17 26  1  0
  6  1  1  0
  3 27  1  0
M  END

> <chembl_id>
CHEMBL1090654

> <chembl_pref_name>
None

$$$$

     RDKit          2D

 26 28  0  0  0  0  0  0  0  0999 V2000
    0.0000    1.5002    0.0000 C   0  0  0  0  0  0  0  0  0  0  0  0
    0.0000   -1.5002    0.0000 N   0  0  0  0  0  0  0  0  0  0  0  0
   -1.2989    0.7501    0.0000 C   0  0  0  0  0  0  0  0  0  0  0  0
    1.2806    0.7501    0.0000 C   0  0  0  0  0  0  0  0  0  0  0  0
   -1.2989   -0.7501    0.0000 C   0  0  0  0  0  0  0  0  0  0  0  0
    1.2806   -0.7501    0.0000 C   0  0  0  0  0  0  0  0  0  0  0  0
    0.0120    3.0009    0.0000 N   0  0  0  0  0  0  0  0  0  0  0  0
    6.5867   12.7078    0.0000 N   0  0  0  0  0  0  0  0  0  0  0  0
   -2.5978    1.5002    0.0000 C   0  0  0  0  0  0  0  0  0  0  0  0
    2.5978    1.5002    0.0000 C   0  0  0  0  0  0  0  0  0  0  0  0
   -2.5978   -1.5002    0.0000 C   0  0  0  0  0  0  0  0  0  0  0  0
    2.5978   -1.5002    0.0000 C   0  0  0  0  0  0  0  0  0  0  0  0
    1.3173    3.7417    0.0000 C   0  0  0  0  0  0  0  0  0  0  0  0
    5.2814   11.9671    0.0000 C   0  0  0  0  0  0  0  0  0  0  0  0
    6.5963   13.9078    0.0000 C   0  0  0  0  0  0  0  0  0  0  0  0
    7.6212   12.0998    0.0000 C   0  0  0  0  0  0  0  0  0  0  0  0
    5.2693   10.4663    0.0000 C   0  0  0  0  0  0  0  0  0  0  0  0
    1.3293    5.2425    0.0000 C   0  0  0  0  0  0  0  0  0  0  0  0
    3.9520    8.2248    0.0000 C   0  0  0  0  0  0  0  0  0  0  0  0
    3.9640    9.7255    0.0000 C   0  0  0  0  0  0  0  0  0  0  0  0
    2.6346    5.9832    0.0000 C   0  0  0  0  0  0  0  0  0  0  0  0
    2.6467    7.4840    0.0000 C   0  0  0  0  0  0  0  0  0  0  0  0
   -3.8968    0.7501    0.0000 C   0  0  0  0  0  0  0  0  0  0  0  0
    3.8968    0.7501    0.0000 C   0  0  0  0  0  0  0  0  0  0  0  0
   -3.8968   -0.7501    0.0000 C   0  0  0  0  0  0  0  0  0  0  0  0
    3.8968   -0.7501    0.0000 C   0  0  0  0  0  0  0  0  0  0  0  0
  1  3  2  0
  1  4  1  0
  2  5  2  0
  3  5  1  0
  2  6  1  0
  4  6  1  0
  1  7  1  0
  3  9  1  0
  4 10  2  0
  5 11  1  0
  6 12  2  0
  7 13  1  0
  8 14  1  0
  8 15  1  0
  8 16  1  0
 14 17  1  0
 13 18  1  0
 17 20  1  0
 19 20  1  0
 18 21  1  0
 19 22  1  0
 21 22  1  0
  9 23  1  0
 10 24  1  0
 11 25  1  0
 23 25  1  0
 12 26  1  0
 24 26  2  0
M  END

> <chembl_id>
CHEMBL1084094

> <chembl_pref_name>
None

$$$$

     RDKit          2D

 24 27  0  0  0  0  0  0  0  0999 V2000
   -5.2235    2.5882    0.0000 O   0  0  0  0  0  0  0  0  0  0  0  0
    1.9914    1.0957    0.0000 O   0  0  0  0  0  0  0  0  0  0  0  0
   -0.1521    2.3332    0.0000 N   0  0  0  0  0  0  0  0  0  0  0  0
   -1.5810    1.5082    0.0000 N   0  0  0  0  0  0  0  0  0  0  0  0
   -0.1521    1.5082    0.0000 C   0  0  0  0  0  0  0  0  0  0  0  0
   -4.4389    1.5082    0.0000 C   0  0  0  0  0  0  0  0  0  0  0  0
   -3.0099    1.5082    0.0000 C   0  0  0  0  0  0  0  0  0  0  0  0
   -4.4389    2.3332    0.0000 C   0  0  0  0  0  0  0  0  0  0  0  0
    0.5624    2.7457    0.0000 C   0  0  0  0  0  0  0  0  0  0  0  0
   -0.8665    1.0957    0.0000 C   0  0  0  0  0  0  0  0  0  0  0  0
   -2.2955    1.0957    0.0000 C   0  0  0  0  0  0  0  0  0  0  0  0
   -3.7244    1.0957    0.0000 C   0  0  0  0  0  0  0  0  0  0  0  0
   -0.8665    2.7457    0.0000 C   0  0  0  0  0  0  0  0  0  0  0  0
   -1.5810    2.3332    0.0000 C   0  0  0  0  0  0  0  0  0  0  0  0
   -3.0099    2.3332    0.0000 C   0  0  0  0  0  0  0  0  0  0  0  0
   -3.7244    2.7457    0.0000 C   0  0  0  0  0  0  0  0  0  0  0  0
   -5.2235    1.2533    0.0000 C   0  0  0  0  0  0  0  0  0  0  0  0
    0.5624    1.0957    0.0000 C   0  0  0  0  0  0  0  0  0  0  0  0
    0.6487    3.5662    0.0000 C   0  0  0  0  0  0  0  0  0  0  0  0
    1.3161    2.4102    0.0000 C   0  0  0  0  0  0  0  0  0  0  0  0
   -5.7084    1.9207    0.0000 C   0  0  0  0  0  0  0  0  0  0  0  0
    1.4556    3.7377    0.0000 C   0  0  0  0  0  0  0  0  0  0  0  0
    1.8681    3.0233    0.0000 C   0  0  0  0  0  0  0  0  0  0  0  0
    1.2769    1.5082    0.0000 C   0  0  0  0  0  0  0  0  0  0  0  0
  1  8  1  0
  1 21  1  0
  2 24  1  0
  3  5  1  0
  3  9  1  0
  3 13  1  0
  4 10  1  0
  4 11  1  0
  4 14  1  0
  5 10  1  0
  5 18  1  0
  6  8  1  0
  6 12  2  0
  6 17  1  0
  7 11  1  0
  7 12  1  0
  7 15  2  0
  8 16  2  0
  9 19  1  0
  9 20  1  0
 13 14  1  0
 15 16  1  0
 17 21  1  0
 18 24  1  0
 19 22  1  0
 20 23  1  0
 22 23  1  0
M  END

> <chembl_id>
CHEMBL1400674

> <chembl_pref_name>
None

$$$$

     RDKit          2D

 54 56  0  0  0  0  0  0  0  0999 V2000
   -3.1167    2.2250    0.0000 C   0  0  0  0  0  0  0  0  0  0  0  0
   -2.4022    2.6375    0.0000 C   0  0  0  0  0  0  0  0  0  0  0  0
   -1.6877    2.2250    0.0000 C   0  0  0  0  0  0  0  0  0  0  0  0
   -3.1167    1.4000    0.0000 C   0  0  0  0  0  0  0  0  0  0  0  0
   -1.6877    1.4000    0.0000 C   0  0  0  0  0  0  0  0  0  0  0  0
   -3.8311    0.9875    0.0000 C   0  0  0  0  0  0  0  0  0  0  0  0
   -3.8311    0.1625    0.0000 C   0  0  0  0  0  0  0  0  0  0  0  0
   -3.1167   -0.2500    0.0000 C   0  0  0  0  0  0  0  0  0  0  0  0
   -3.1167   -1.0750    0.0000 O   0  0  0  0  0  0  0  0  0  0  0  0
   -2.4022   -1.4875    0.0000 C   0  0  0  0  0  0  0  0  0  0  0  0
   -1.6877   -1.0750    0.0000 C   0  0  0  0  0  0  0  0  0  0  0  0
   -1.6877   -0.2500    0.0000 C   0  0  0  0  0  0  0  0  0  0  0  0
   -0.9733    0.1625    0.0000 C   0  0  0  0  0  0  0  0  0  0  0  0
   -0.9733    0.9875    0.0000 C   0  0  0  0  0  0  0  0  0  0  0  0
   -2.4022    3.4625    0.0000 C   0  0  0  0  0  0  0  0  0  0  0  0
   -3.8311    2.6375    0.0000 O   0  0  0  0  0  0  0  0  0  0  0  0
   -4.5456    1.4000    0.0000 O   0  0  0  0  0  0  0  0  0  0  0  0
   -5.2601    0.9875    0.0000 C   0  0  0  0  0  0  0  0  0  0  0  0
   -3.8333    1.8167    0.0000 C   0  0  0  0  0  0  0  0  0  0  0  0
   -4.5500    0.5792    0.0000 O   0  0  0  0  0  0  0  0  0  0  0  0
   -4.2500   -0.5458    0.0000 C   0  0  0  0  0  0  0  0  0  0  0  0
   -3.8322   -0.6624    0.0000 C   0  0  0  0  0  0  0  0  0  0  0  0
   -3.8321   -1.4874    0.0000 C   0  0  0  0  0  0  0  0  0  0  0  0
   -2.4022   -2.3125    0.0000 O   0  0  0  0  0  0  0  0  0  0  0  0
   -0.9792   -0.6583    0.0000 O   0  0  0  0  0  0  0  0  0  0  0  0
   -0.9785   -1.4833    0.0000 C   0  0  0  0  0  0  0  0  0  0  0  0
   -0.2637   -1.8953    0.0000 N   0  0  0  0  0  0  0  0  0  0  0  0
   -1.6927   -1.8964    0.0000 O   0  0  0  0  0  0  0  0  0  0  0  0
   -2.2792   -0.4833    0.0000 C   0  0  0  0  0  0  0  0  0  0  0  0
   -0.2588   -0.2500    0.0000 C   0  0  0  0  0  0  0  0  0  0  0  0
   -0.2588    1.4000    0.0000 O   0  0  0  0  0  0  0  0  0  0  0  0
   -2.4083    1.8167    0.0000 C   0  0  0  0  0  0  0  0  0  0  0  0
   -2.1083    0.6917    0.0000 O   0  0  0  0  0  0  0  0  0  0  0  0
   -2.9333    0.7018    0.0000 C   0  0  0  0  0  0  0  0  0  0  0  0
    0.4557    0.9875    0.0000 C   0  0  0  0  0  0  0  0  0  0  0  0
    0.4521    0.1661    0.0000 O   0  0  0  0  0  0  0  0  0  0  0  0
    1.1624   -0.2463    0.0000 C   0  0  0  0  0  0  0  0  0  0  0  0
    1.8793    0.1627    0.0000 C   0  0  0  0  0  0  0  0  0  0  0  0
    1.8813    0.9886    0.0000 C   0  0  0  0  0  0  0  0  0  0  0  0
    1.1664    1.4056    0.0000 C   0  0  0  0  0  0  0  0  0  0  0  0
    2.5972    1.3987    0.0000 N   0  0  0  0  0  0  0  0  0  0  0  0
    3.3102    0.9838    0.0000 C   0  0  0  0  0  0  0  0  0  0  0  0
    2.6000    2.2237    0.0000 C   0  0  0  0  0  0  0  0  0  0  0  0
    1.1648    2.2306    0.0000 O   0  0  0  0  0  0  0  0  0  0  0  0
    1.1593   -1.0713    0.0000 C   0  0  0  0  0  0  0  0  0  0  0  0
    0.4500    1.8167    0.0000 H   0  0  0  0  0  0  0  0  0  0  0  0
   -0.2631   -2.7203    0.0000 C   0  0  0  0  0  0  0  0  0  0  0  0
    0.4517   -3.1322    0.0000 C   0  0  0  0  0  0  0  0  0  0  0  0
    0.4479   -3.9553    0.0000 C   0  0  0  0  0  0  0  0  0  0  0  0
    1.1618   -4.3671    0.0000 C   0  0  0  0  0  0  0  0  0  0  0  0
    1.8770   -3.9540    0.0000 C   0  0  0  0  0  0  0  0  0  0  0  0
    1.8737   -3.1247    0.0000 C   0  0  0  0  0  0  0  0  0  0  0  0
    1.1591   -2.7166    0.0000 C   0  0  0  0  0  0  0  0  0  0  0  0
    2.5923   -4.3650    0.0000 F   0  0  0  0  0  0  0  0  0  0  0  0
 26 27  1  0
 13 14  1  0
 26 28  2  0
 14  5  1  0
 11 29  1  1
  1  4  1  0
 13 30  1  1
  2 15  1  6
 14 31  1  6
  7  8  1  0
  5 32  1  1
  1 16  2  0
  5 33  1  0
 33 34  1  0
  6 17  1  6
 31 35  1  0
 35 36  1  0
  8  9  1  0
 17 18  1  0
  3  5  1  0
  4 19  1  1
  9 10  1  0
 35 40  1  0
 36 37  1  0
 37 38  1  0
 38 39  1  0
 39 40  1  0
  7 20  1  1
 39 41  1  1
  2  3  1  0
 41 42  1  0
  7 21  1  0
 41 43  1  0
 10 11  1  0
 40 44  1  6
  8 22  1  1
 37 45  1  1
  4  6  1  0
 35 46  1  6
 22 23  1  0
 27 47  1  0
 11 12  1  0
 47 48  1  0
 10 24  2  0
 48 49  2  0
  1  2  1  0
 49 50  1  0
 12 25  1  1
 50 51  2  0
 12 13  1  0
 51 52  1  0
 25 26  1  0
 52 53  2  0
 53 48  1  0
  6  7  1  0
 51 54  1  0
M  END

> <chembl_id>
CHEMBL1240634

> <chembl_pref_name>
None

$$$$

     RDKit          2D

 24 27  0  0  0  0  0  0  0  0999 V2000
    9.7576   -9.9861    0.0000 C   0  0  0  0  0  0  0  0  0  0  0  0
    9.7576  -10.8153    0.0000 C   0  0  0  0  0  0  0  0  0  0  0  0
   10.4717  -11.2275    0.0000 N   0  0  0  0  0  0  0  0  0  0  0  0
   11.1904  -10.8153    0.0000 C   0  0  0  0  0  0  0  0  0  0  0  0
   11.1904   -9.9861    0.0000 C   0  0  0  0  0  0  0  0  0  0  0  0
   10.4717   -9.5693    0.0000 C   0  0  0  0  0  0  0  0  0  0  0  0
   10.1241  -10.3526    0.0000 C   0  0  0  0  0  0  0  0  0  0  0  0
   10.8433  -10.3526    0.0000 C   0  0  0  0  0  0  0  0  0  0  0  0
    7.6209   -6.2710    0.0000 C   0  0  0  0  0  0  0  0  0  0  0  0
    7.6196   -7.0982    0.0000 C   0  0  0  0  0  0  0  0  0  0  0  0
    8.3322   -7.5109    0.0000 C   0  0  0  0  0  0  0  0  0  0  0  0
    9.0511   -7.0977    0.0000 C   0  0  0  0  0  0  0  0  0  0  0  0
    9.0480   -6.2671    0.0000 C   0  0  0  0  0  0  0  0  0  0  0  0
    8.3302   -5.8585    0.0000 C   0  0  0  0  0  0  0  0  0  0  0  0
    9.7656   -7.5093    0.0000 C   0  0  0  0  0  0  0  0  0  0  0  0
    9.7663   -8.3338    0.0000 O   0  0  0  0  0  0  0  0  0  0  0  0
   10.4807   -8.7454    0.0000 N   0  0  0  0  0  0  0  0  0  0  0  0
    6.9065   -5.8594    0.0000 Cl  0  0  0  0  0  0  0  0  0  0  0  0
   10.4765   -7.0997    0.0000 C   0  0  0  0  0  0  0  0  0  0  0  0
   11.1914   -7.5129    0.0000 C   0  0  0  0  0  0  0  0  0  0  0  0
   11.9045   -7.1007    0.0000 C   0  0  0  0  0  0  0  0  0  0  0  0
   11.9042   -6.2753    0.0000 C   0  0  0  0  0  0  0  0  0  0  0  0
   11.1848   -5.8638    0.0000 C   0  0  0  0  0  0  0  0  0  0  0  0
   10.4745   -6.2784    0.0000 C   0  0  0  0  0  0  0  0  0  0  0  0
 11 12  2  0
  5  6  1  0
 12 13  1  0
 13 14  2  0
 14  9  1  0
  2  7  1  0
 12 15  1  0
  1  2  1  0
 15 16  1  0
  4  8  1  0
 16 17  1  0
 17  6  2  0
  8  7  1  0
  9 18  1  0
  1  6  1  0
  2  3  1  0
 19 20  2  0
  9 10  2  0
 20 21  1  0
  3  4  1  0
 21 22  2  0
 10 11  1  0
 22 23  1  0
  4  5  1  0
 23 24  2  0
 24 19  1  0
 15 19  1  0
M  END

> <chembl_id>
CHEMBL1098694

> <chembl_pref_name>
None

$$$$

     RDKit          2D

 32 35  0  0  0  0  0  0  0  0999 V2000
    0.1833    0.0750    0.0000 C   0  0  0  0  0  0  0  0  0  0  0  0
   -0.5333    0.4875    0.0000 C   0  0  0  0  0  0  0  0  0  0  0  0
   -1.2500    0.0667    0.0000 C   0  0  0  0  0  0  0  0  0  0  0  0
    0.8833    0.4917    0.0000 C   0  0  0  0  0  0  0  0  0  0  0  0
   -1.9667    0.4792    0.0000 C   0  0  0  0  0  0  0  0  0  0  0  0
    0.1833   -0.7500    0.0000 C   0  0  0  0  0  0  0  0  0  0  0  0
   -1.2500   -0.7500    0.0000 C   0  0  0  0  0  0  0  0  0  0  0  0
    1.6042    0.0875    0.0000 C   0  0  0  0  0  0  0  0  0  0  0  0
   -0.5333   -1.1625    0.0000 O   0  0  0  0  0  0  0  0  0  0  0  0
   -2.6792    0.0667    0.0000 C   0  0  0  0  0  0  0  0  0  0  0  0
    1.6083   -0.7375    0.0000 C   0  0  0  0  0  0  0  0  0  0  0  0
    0.8958   -1.1583    0.0000 C   0  0  0  0  0  0  0  0  0  0  0  0
   -1.9667   -1.1750    0.0000 C   0  0  0  0  0  0  0  0  0  0  0  0
   -2.6792   -0.7625    0.0000 C   0  0  0  0  0  0  0  0  0  0  0  0
   -1.9667    1.3042    0.0000 C   0  0  0  0  0  0  0  0  0  0  0  0
    2.3167    0.5042    0.0000 C   0  0  0  0  0  0  0  0  0  0  0  0
   -2.6792    1.7125    0.0000 C   0  0  0  0  0  0  0  0  0  0  0  0
   -0.5417    1.3125    0.0000 O   0  0  0  0  0  0  0  0  0  0  0  0
   -2.6833    2.5375    0.0000 C   0  0  0  0  0  0  0  0  0  0  0  0
    0.8833    1.3167    0.0000 O   0  0  0  0  0  0  0  0  0  0  0  0
    2.3292   -1.1500    0.0000 O   0  0  0  0  0  0  0  0  0  0  0  0
   -3.3917    0.4750    0.0000 O   0  0  0  0  0  0  0  0  0  0  0  0
   -3.3917   -1.1750    0.0000 O   0  0  0  0  0  0  0  0  0  0  0  0
   -3.4042    2.9500    0.0000 C   0  0  0  0  0  0  0  0  0  0  0  0
   -1.9708    2.9583    0.0000 C   0  0  0  0  0  0  0  0  0  0  0  0
   -4.1042    0.0625    0.0000 C   0  0  0  0  0  0  0  0  0  0  0  0
    2.3323   -1.9750    0.0000 C   0  0  0  0  0  0  0  0  0  0  0  0
    1.5978    1.7292    0.0000 C   0  0  0  0  0  0  0  0  0  0  0  0
    2.3121    1.3292    0.0000 C   0  0  0  0  0  0  0  0  0  0  0  0
    3.0227    1.7483    0.0000 O   0  0  0  0  0  0  0  0  0  0  0  0
    2.0042    2.4500    0.0000 C   0  0  0  0  0  0  0  0  0  0  0  0
    1.1792    2.4500    0.0000 C   0  0  0  0  0  0  0  0  0  0  0  0
  7  9  1  0
  8  4  2  0
  9  6  1  0
 10  5  1  0
 11 12  2  0
 12  6  1  0
 13  7  2  0
 14 13  1  0
 15  5  1  0
 16  8  1  0
 17 15  1  0
 18  2  2  0
 19 17  2  0
 20  4  1  0
 21 11  1  0
 22 10  1  0
 23 14  1  0
 24 19  1  0
 25 19  1  0
 26 22  1  0
  8 11  1  0
  3  7  1  0
 10 14  2  0
 21 27  1  0
  2  1  1  0
 20 28  1  0
  3  2  1  0
 16 29  1  0
 29 28  1  0
  4  1  1  0
 29 30  1  0
  5  3  2  0
 28 31  1  0
  6  1  2  0
 28 32  1  0
M  END

> <chembl_id>
CHEMBL1080696

> <chembl_pref_name>
None

$$$$

     RDKit          2D

 34 37  0  0  0  0  0  0  0  0999 V2000
    6.7375   -7.6458    0.0000 C   0  0  0  0  0  0  0  0  0  0  0  0
    6.7375   -8.4708    0.0000 C   0  0  0  0  0  0  0  0  0  0  0  0
    7.4495   -8.8792    0.0000 N   0  0  0  0  0  0  0  0  0  0  0  0
    8.1614   -8.4700    0.0000 C   0  0  0  0  0  0  0  0  0  0  0  0
    8.1612   -7.6473    0.0000 C   0  0  0  0  0  0  0  0  0  0  0  0
    7.4495   -7.2292    0.0000 C   0  0  0  0  0  0  0  0  0  0  0  0
    7.4495   -6.4042    0.0000 O   0  0  0  0  0  0  0  0  0  0  0  0
    8.8656   -7.2157    0.0000 C   0  0  0  0  0  0  0  0  0  0  0  0
    9.5917   -7.6093    0.0000 O   0  0  0  0  0  0  0  0  0  0  0  0
    8.8468   -6.3899    0.0000 O   0  0  0  0  0  0  0  0  0  0  0  0
   10.2948   -7.1778    0.0000 C   0  0  0  0  0  0  0  0  0  0  0  0
   11.0201   -7.5710    0.0000 C   0  0  0  0  0  0  0  0  0  0  0  0
    7.4495   -9.7042    0.0000 C   0  0  0  0  0  0  0  0  0  0  0  0
    6.7350  -10.1167    0.0000 C   0  0  0  0  0  0  0  0  0  0  0  0
    8.1640  -10.1167    0.0000 O   0  0  0  0  0  0  0  0  0  0  0  0
    6.7350  -10.9417    0.0000 N   0  0  0  0  0  0  0  0  0  0  0  0
    6.0201  -11.3553    0.0000 C   0  0  0  0  0  0  0  0  0  0  0  0
    6.0181  -12.1767    0.0000 C   0  0  0  0  0  0  0  0  0  0  0  0
    6.7308  -12.5930    0.0000 N   0  0  0  0  0  0  0  0  0  0  0  0
    7.4471  -12.1818    0.0000 C   0  0  0  0  0  0  0  0  0  0  0  0
    7.4507  -11.3541    0.0000 C   0  0  0  0  0  0  0  0  0  0  0  0
    6.7276  -13.4180    0.0000 C   0  0  0  0  0  0  0  0  0  0  0  0
    8.8736   -8.8791    0.0000 C   0  0  0  0  0  0  0  0  0  0  0  0
    8.8715   -9.7052    0.0000 C   0  0  0  0  0  0  0  0  0  0  0  0
    9.5848  -10.1183    0.0000 C   0  0  0  0  0  0  0  0  0  0  0  0
   10.3006   -9.7063    0.0000 C   0  0  0  0  0  0  0  0  0  0  0  0
   10.2987   -8.8771    0.0000 C   0  0  0  0  0  0  0  0  0  0  0  0
    9.5848   -8.4678    0.0000 C   0  0  0  0  0  0  0  0  0  0  0  0
    6.0246   -8.8849    0.0000 C   0  0  0  0  0  0  0  0  0  0  0  0
    5.3092   -8.4717    0.0000 C   0  0  0  0  0  0  0  0  0  0  0  0
    4.5958   -8.8845    0.0000 C   0  0  0  0  0  0  0  0  0  0  0  0
    4.5966   -9.7104    0.0000 C   0  0  0  0  0  0  0  0  0  0  0  0
    5.3167  -10.1217    0.0000 C   0  0  0  0  0  0  0  0  0  0  0  0
    6.0271   -9.7065    0.0000 C   0  0  0  0  0  0  0  0  0  0  0  0
  5  8  1  0
  1  6  1  0
  2  3  1  0
  8  9  1  0
  8 10  2  0
 16 21  1  0
 17 18  1  0
 18 19  1  0
 19 20  1  0
 20 21  1  0
  3  4  1  0
 19 22  1  0
  9 11  1  0
  4  5  1  0
 23 24  2  0
 11 12  1  0
 24 25  1  0
  5  6  2  0
 25 26  2  0
  3 13  1  0
 26 27  1  0
 27 28  2  0
 28 23  1  0
  4 23  1  0
 13 14  1  0
  6  7  1  0
 29 30  2  0
 13 15  1  0
 30 31  1  0
  1  2  1  0
 31 32  2  0
 14 16  1  0
 32 33  1  0
 16 17  1  0
 33 34  2  0
 34 29  1  0
  2 29  1  0
M  END

> <chembl_id>
CHEMBL1090694

> <chembl_pref_name>
None

$$$$

     RDKit          2D

 23 25  0  0  0  0  0  0  0  0999 V2000
   -1.7734    2.1547    0.0000 N   0  0  0  0  0  0  0  0  0  0  0  0
   -2.1859    0.8852    0.0000 N   0  0  0  0  0  0  0  0  0  0  0  0
    0.5788   -1.7846    0.0000 N   0  0  0  0  0  0  0  0  0  0  0  0
    0.2432   -2.5382    0.0000 N   0  0  0  0  0  0  0  0  0  0  0  0
    0.7281   -3.2057    0.0000 N   0  0  0  0  0  0  0  0  0  0  0  0
   -1.3609    0.8852    0.0000 C   0  0  0  0  0  0  0  0  0  0  0  0
   -0.8760    0.2178    0.0000 C   0  0  0  0  0  0  0  0  0  0  0  0
   -1.1060    1.6698    0.0000 C   0  0  0  0  0  0  0  0  0  0  0  0
   -2.4409    1.6698    0.0000 C   0  0  0  0  0  0  0  0  0  0  0  0
   -0.0555    0.3040    0.0000 C   0  0  0  0  0  0  0  0  0  0  0  0
   -1.2115   -0.5359    0.0000 C   0  0  0  0  0  0  0  0  0  0  0  0
    0.0939   -1.1171    0.0000 C   0  0  0  0  0  0  0  0  0  0  0  0
   -1.7734    2.9797    0.0000 C   0  0  0  0  0  0  0  0  0  0  0  0
    0.4294   -0.3635    0.0000 C   0  0  0  0  0  0  0  0  0  0  0  0
   -0.7266   -1.2034    0.0000 C   0  0  0  0  0  0  0  0  0  0  0  0
   -2.4879    3.3922    0.0000 C   0  0  0  0  0  0  0  0  0  0  0  0
   -3.2024    2.9797    0.0000 C   0  0  0  0  0  0  0  0  0  0  0  0
   -2.4879    4.2172    0.0000 C   0  0  0  0  0  0  0  0  0  0  0  0
   -3.9168    3.3922    0.0000 C   0  0  0  0  0  0  0  0  0  0  0  0
   -3.2024    4.6297    0.0000 C   0  0  0  0  0  0  0  0  0  0  0  0
   -3.9168    4.2172    0.0000 C   0  0  0  0  0  0  0  0  0  0  0  0
    1.5486   -3.1194    0.0000 C   0  0  0  0  0  0  0  0  0  0  0  0
    0.3926   -3.9594    0.0000 C   0  0  0  0  0  0  0  0  0  0  0  0
  1  8  1  0
  1  9  1  0
  1 13  1  0
  2  6  1  0
  2  9  2  0
  3  4  2  3
  3 12  1  0
  4  5  1  0
  5 22  1  0
  5 23  1  0
  6  7  1  0
  6  8  2  0
  7 10  2  0
  7 11  1  0
 10 14  1  0
 11 15  2  0
 12 14  2  0
 12 15  1  0
 13 16  1  0
 16 17  2  0
 16 18  1  0
 17 19  1  0
 18 20  2  0
 19 21  2  0
 20 21  1  0
M  END

> <chembl_id>
CHEMBL1540694

> <chembl_pref_name>
None

$$$$

     RDKit          2D

 22 22  0  0  0  0  0  0  0  0999 V2000
   -2.3191   -0.5457    0.0000 S   0  0  0  0  0  0  0  0  0  0  0  0
   -2.7316    0.1688    0.0000 O   0  0  0  0  0  0  0  0  0  0  0  0
   -1.9066   -1.2601    0.0000 O   0  0  0  0  0  0  0  0  0  0  0  0
    2.6822    0.6918    0.0000 O   0  0  0  0  0  0  0  0  0  0  0  0
    1.9677    1.9293    0.0000 O   0  0  0  0  0  0  0  0  0  0  0  0
   -3.0336   -0.9582    0.0000 N   0  0  0  0  0  0  0  0  0  0  0  0
    4.8256    0.2793    0.0000 N   0  0  0  0  0  0  0  0  0  0  0  0
   -1.6047   -0.1332    0.0000 C   0  0  0  0  0  0  0  0  0  0  0  0
   -1.6047    0.6918    0.0000 C   0  0  0  0  0  0  0  0  0  0  0  0
   -0.8902   -0.5457    0.0000 C   0  0  0  0  0  0  0  0  0  0  0  0
   -0.1757    0.6918    0.0000 C   0  0  0  0  0  0  0  0  0  0  0  0
   -0.8902    1.1043    0.0000 C   0  0  0  0  0  0  0  0  0  0  0  0
   -0.1757   -0.1332    0.0000 C   0  0  0  0  0  0  0  0  0  0  0  0
   -3.7481   -0.5457    0.0000 C   0  0  0  0  0  0  0  0  0  0  0  0
   -3.0336   -1.7832    0.0000 C   0  0  0  0  0  0  0  0  0  0  0  0
    0.5388    1.1043    0.0000 C   0  0  0  0  0  0  0  0  0  0  0  0
    1.2532    0.6918    0.0000 C   0  0  0  0  0  0  0  0  0  0  0  0
   -4.4625   -0.9582    0.0000 C   0  0  0  0  0  0  0  0  0  0  0  0
   -3.7481   -2.1957    0.0000 C   0  0  0  0  0  0  0  0  0  0  0  0
    1.9677    1.1043    0.0000 C   0  0  0  0  0  0  0  0  0  0  0  0
    3.3966    1.1043    0.0000 C   0  0  0  0  0  0  0  0  0  0  0  0
    4.1111    0.6918    0.0000 C   0  0  0  0  0  0  0  0  0  0  0  0
  1  2  2  0
  1  3  2  0
  1  6  1  0
  1  8  1  0
  4 20  1  0
  4 21  1  0
  5 20  2  0
  6 14  1  0
  6 15  1  0
  7 22  3  0
  8  9  2  0
  8 10  1  0
  9 12  1  0
 10 13  2  0
 11 12  2  0
 11 13  1  0
 11 16  1  0
 14 18  1  0
 15 19  1  0
 16 17  2  0
 17 20  1  0
 21 22  1  0
M  END

> <chembl_id>
CHEMBL1340794

> <chembl_pref_name>
None

$$$$

     RDKit          2D

 55 56  0  0  0  0  0  0  0  0999 V2000
   12.2312   -6.1485    0.0000 C   0  0  0  0  0  0  0  0  0  0  0  0
   11.5187   -5.7484    0.0000 C   0  0  0  0  0  0  0  0  0  0  0  0
   12.2403   -6.9669    0.0000 O   0  0  0  0  0  0  0  0  0  0  0  0
   12.9347   -5.7303    0.0000 O   0  0  0  0  0  0  0  0  0  0  0  0
   11.5089   -4.9313    0.0000 F   0  0  0  0  0  0  0  0  0  0  0  0
   10.8159   -6.1655    0.0000 F   0  0  0  0  0  0  0  0  0  0  0  0
   10.8082   -5.3380    0.0000 F   0  0  0  0  0  0  0  0  0  0  0  0
    4.2785   -9.9746    0.0000 N   0  0  0  0  0  0  0  0  0  0  0  0
    4.2766  -10.8008    0.0000 C   0  0  0  0  0  0  0  0  0  0  0  0
    3.5608  -11.2110    0.0000 N   0  0  0  0  0  0  0  0  0  0  0  0
    4.9904  -11.2167    0.0000 N   0  0  0  0  0  0  0  0  0  0  0  0
    2.1450   -7.0816    0.0000 N   0  0  0  0  0  0  0  0  0  0  0  0
    2.8589   -7.4975    0.0000 C   0  0  0  0  0  0  0  0  0  0  0  0
    3.5765   -6.2612    0.0000 O   0  0  0  0  0  0  0  0  0  0  0  0
    3.5746   -7.0873    0.0000 C   0  0  0  0  0  0  0  0  0  0  0  0
    2.8548   -8.3201    0.0000 C   0  0  0  0  0  0  0  0  0  0  0  0
    3.5687   -8.7360    0.0000 C   0  0  0  0  0  0  0  0  0  0  0  0
    3.5668   -9.5622    0.0000 C   0  0  0  0  0  0  0  0  0  0  0  0
    4.2863   -7.4997    0.0000 N   0  0  0  0  0  0  0  0  0  0  0  0
    1.4289   -7.4912    0.0000 C   0  0  0  0  0  0  0  0  0  0  0  0
    0.7162   -7.0759    0.0000 C   0  0  0  0  0  0  0  0  0  0  0  0
    1.4256   -8.3162    0.0000 O   0  0  0  0  0  0  0  0  0  0  0  0
    0.7194   -6.2509    0.0000 C   0  0  0  0  0  0  0  0  0  0  0  0
    0.0000   -7.4854    0.0000 C   0  0  0  0  0  0  0  0  0  0  0  0
    1.4363   -5.8424    0.0000 C   0  0  0  0  0  0  0  0  0  0  0  0
    1.4399   -5.0183    0.0000 C   0  0  0  0  0  0  0  0  0  0  0  0
    0.7266   -4.6021    0.0000 C   0  0  0  0  0  0  0  0  0  0  0  0
    0.0081   -5.0161    0.0000 C   0  0  0  0  0  0  0  0  0  0  0  0
    0.0080   -5.8390    0.0000 C   0  0  0  0  0  0  0  0  0  0  0  0
   -0.7126   -7.0719    0.0000 C   0  0  0  0  0  0  0  0  0  0  0  0
   -1.4303   -7.4809    0.0000 C   0  0  0  0  0  0  0  0  0  0  0  0
   -1.4348   -8.3067    0.0000 C   0  0  0  0  0  0  0  0  0  0  0  0
   -0.7194   -8.7219    0.0000 C   0  0  0  0  0  0  0  0  0  0  0  0
   -0.0071   -8.3106    0.0000 C   0  0  0  0  0  0  0  0  0  0  0  0
    5.0014   -7.0883    0.0000 C   0  0  0  0  0  0  0  0  0  0  0  0
    5.7152   -7.5018    0.0000 C   0  0  0  0  0  0  0  0  0  0  0  0
    5.7125   -8.3259    0.0000 C   0  0  0  0  0  0  0  0  0  0  0  0
    6.4255   -8.7393    0.0000 C   0  0  0  0  0  0  0  0  0  0  0  0
    7.1415   -8.3278    0.0000 C   0  0  0  0  0  0  0  0  0  0  0  0
    7.1401   -7.4986    0.0000 C   0  0  0  0  0  0  0  0  0  0  0  0
    6.4265   -7.0888    0.0000 C   0  0  0  0  0  0  0  0  0  0  0  0
    7.8559   -8.7405    0.0000 C   0  0  0  0  0  0  0  0  0  0  0  0
    8.5705   -8.3281    0.0000 N   0  0  0  0  0  0  0  0  0  0  0  0
    9.2848   -8.7407    0.0000 C   0  0  0  0  0  0  0  0  0  0  0  0
    9.9994   -8.3283    0.0000 N   0  0  0  0  0  0  0  0  0  0  0  0
    9.2847   -9.5657    0.0000 O   0  0  0  0  0  0  0  0  0  0  0  0
   10.7137   -8.7409    0.0000 C   0  0  0  0  0  0  0  0  0  0  0  0
   11.4282   -8.3285    0.0000 C   0  0  0  0  0  0  0  0  0  0  0  0
   12.1426   -8.7411    0.0000 C   0  0  0  0  0  0  0  0  0  0  0  0
   12.8571   -8.3287    0.0000 C   0  0  0  0  0  0  0  0  0  0  0  0
   13.5716   -8.7413    0.0000 N   0  0  0  0  0  0  0  0  0  0  0  0
   14.2860   -8.3290    0.0000 C   0  0  0  0  0  0  0  0  0  0  0  0
   15.0004   -8.7416    0.0000 C   0  0  0  0  0  0  0  0  0  0  0  0
   14.2862   -7.5040    0.0000 O   0  0  0  0  0  0  0  0  0  0  0  0
   15.7149   -8.3292    0.0000 N   0  0  0  0  0  0  0  0  0  0  0  0
  1  2  1  0
  1  3  2  0
  1  4  1  0
  2  5  1  0
  2  6  1  0
  2  7  1  0
 15 19  1  0
  8  9  1  0
  9 10  1  0
  9 11  2  0
 12 13  1  0
 13 15  1  0
 15 14  2  0
 13 16  1  1
 16 17  1  0
 17 18  1  0
 18  8  1  0
 12 20  1  0
 20 21  1  0
 20 22  2  0
 21 23  1  0
 21 24  1  0
 23 25  2  0
 25 26  1  0
 26 27  2  0
 27 28  1  0
 28 29  2  0
 29 23  1  0
 24 30  2  0
 30 31  1  0
 31 32  2  0
 32 33  1  0
 33 34  2  0
 34 24  1  0
 19 35  1  0
 35 36  1  0
 36 37  2  0
 37 38  1  0
 38 39  2  0
 39 40  1  0
 40 41  2  0
 41 36  1  0
 39 42  1  0
 42 43  1  0
 43 44  1  0
 44 45  1  0
 44 46  2  0
 45 47  1  0
 47 48  1  0
 48 49  1  0
 49 50  1  0
 50 51  1  0
 51 52  1  0
 52 53  1  0
 52 54  2  0
 53 55  1  0
M  END

> <chembl_id>
CHEMBL2440919

> <chembl_pref_name>
None

$$$$

     RDKit          2D

 25 26  0  0  0  0  0  0  0  0999 V2000
   -2.3906    2.4959    0.0000 S   0  0  0  0  0  0  0  0  0  0  0  0
   -0.2472   -2.0416    0.0000 O   0  0  0  0  0  0  0  0  0  0  0  0
   -1.6762   -4.5166    0.0000 O   0  0  0  0  0  0  0  0  0  0  0  0
   -2.3906    3.3209    0.0000 O   0  0  0  0  0  0  0  0  0  0  0  0
   -3.2156    2.4959    0.0000 O   0  0  0  0  0  0  0  0  0  0  0  0
    1.1817   -3.6916    0.0000 O   0  0  0  0  0  0  0  0  0  0  0  0
    0.4672   -2.4541    0.0000 O   0  0  0  0  0  0  0  0  0  0  0  0
   -1.6762   -2.0416    0.0000 N   0  0  0  0  0  0  0  0  0  0  0  0
   -1.5656    2.4959    0.0000 N   0  0  0  0  0  0  0  0  0  0  0  0
   -0.9617   -3.2791    0.0000 C   0  0  0  0  0  0  0  0  0  0  0  0
   -0.9617   -2.4541    0.0000 C   0  0  0  0  0  0  0  0  0  0  0  0
   -1.6762   -3.6916    0.0000 C   0  0  0  0  0  0  0  0  0  0  0  0
   -2.3906    1.6709    0.0000 C   0  0  0  0  0  0  0  0  0  0  0  0
   -2.3906    0.0209    0.0000 C   0  0  0  0  0  0  0  0  0  0  0  0
   -2.3906   -2.4541    0.0000 C   0  0  0  0  0  0  0  0  0  0  0  0
   -2.3906   -3.2791    0.0000 C   0  0  0  0  0  0  0  0  0  0  0  0
   -1.6762   -1.2166    0.0000 C   0  0  0  0  0  0  0  0  0  0  0  0
   -0.2472   -3.6916    0.0000 C   0  0  0  0  0  0  0  0  0  0  0  0
   -1.6762    1.2584    0.0000 C   0  0  0  0  0  0  0  0  0  0  0  0
   -3.1051    1.2584    0.0000 C   0  0  0  0  0  0  0  0  0  0  0  0
   -2.3906   -0.8041    0.0000 C   0  0  0  0  0  0  0  0  0  0  0  0
   -1.6762    0.4334    0.0000 C   0  0  0  0  0  0  0  0  0  0  0  0
   -3.1051    0.4334    0.0000 C   0  0  0  0  0  0  0  0  0  0  0  0
    0.4672   -3.2791    0.0000 C   0  0  0  0  0  0  0  0  0  0  0  0
    1.1817   -4.5166    0.0000 C   0  0  0  0  0  0  0  0  0  0  0  0
  1  4  2  0
  1  5  2  0
  1  9  1  0
  1 13  1  0
  2 11  2  0
  3 12  1  0
  6 24  1  0
  6 25  1  0
  7 24  2  0
  8 11  1  0
  8 15  1  0
  8 17  1  0
 10 11  1  0
 10 12  2  0
 10 18  1  0
 12 16  1  0
 13 19  2  0
 13 20  1  0
 14 21  1  0
 14 22  2  0
 14 23  1  0
 15 16  2  0
 17 21  1  0
 18 24  1  0
 19 22  1  0
 20 23  2  0
M  END

> <chembl_id>
CHEMBL1340964

> <chembl_pref_name>
None

$$$$

     RDKit          2D

 20 22  0  0  0  0  0  0  0  0999 V2000
    6.2122  -19.1360    0.0000 N   0  0  0  0  0  0  0  0  0  0  0  0
    6.9287  -18.7227    0.0000 C   0  0  0  0  0  0  0  0  0  0  0  0
    6.9258  -17.8922    0.0000 C   0  0  0  0  0  0  0  0  0  0  0  0
    6.2104  -17.4830    0.0000 C   0  0  0  0  0  0  0  0  0  0  0  0
    5.4974  -18.7232    0.0000 C   0  0  0  0  0  0  0  0  0  0  0  0
    5.4940  -17.8943    0.0000 C   0  0  0  0  0  0  0  0  0  0  0  0
    4.7047  -17.6413    0.0000 C   0  0  0  0  0  0  0  0  0  0  0  0
    4.2201  -18.3139    0.0000 C   0  0  0  0  0  0  0  0  0  0  0  0
    4.7101  -18.9824    0.0000 S   0  0  0  0  0  0  0  0  0  0  0  0
    7.6438  -19.1341    0.0000 O   0  0  0  0  0  0  0  0  0  0  0  0
    6.2098  -16.6580    0.0000 O   0  0  0  0  0  0  0  0  0  0  0  0
    4.4466  -16.8577    0.0000 C   0  0  0  0  0  0  0  0  0  0  0  0
    4.9961  -16.2424    0.0000 C   0  0  0  0  0  0  0  0  0  0  0  0
    3.6389  -16.6894    0.0000 C   0  0  0  0  0  0  0  0  0  0  0  0
    7.6387  -17.4770    0.0000 C   0  0  0  0  0  0  0  0  0  0  0  0
    8.3520  -17.8898    0.0000 C   0  0  0  0  0  0  0  0  0  0  0  0
    9.0644  -17.4753    0.0000 C   0  0  0  0  0  0  0  0  0  0  0  0
    9.0617  -16.6494    0.0000 C   0  0  0  0  0  0  0  0  0  0  0  0
    8.3407  -16.2398    0.0000 C   0  0  0  0  0  0  0  0  0  0  0  0
    7.6312  -16.6567    0.0000 C   0  0  0  0  0  0  0  0  0  0  0  0
  4  6  1  0
  2 10  1  0
  5  6  2  0
  4 11  1  0
  1  2  2  0
  7 12  1  0
  5  1  1  0
 12 13  1  0
  2  3  1  0
 12 14  1  0
  3 15  1  0
  3  4  2  0
 15 16  2  0
  6  7  1  0
 16 17  1  0
  7  8  2  0
 17 18  2  0
  8  9  1  0
 18 19  1  0
  9  5  1  0
 19 20  2  0
 20 15  1  0
M  END

> <chembl_id>
CHEMBL198234

> <chembl_pref_name>
None

$$$$

     RDKit          2D

 28 27  0  0  0  0  0  0  0  0999 V2000
   13.4159   -1.1837    0.0000 Cl  0  0  0  0  0  0  0  0  0  0  0  0
    2.5889    0.0182    0.0000 C   0  0  0  0  0  0  0  0  0  0  0  0
    1.7138    1.2033    0.0000 N   0  0  0  0  0  0  0  0  0  0  0  0
    0.2917    0.7475    0.0000 C   0  0  0  0  0  0  0  0  0  0  0  0
    0.2917   -0.7475    0.0000 C   0  0  0  0  0  0  0  0  0  0  0  0
    1.7138   -1.2033    0.0000 N   0  0  0  0  0  0  0  0  0  0  0  0
   -1.0028    1.5132    0.0000 C   0  0  0  0  0  0  0  0  0  0  0  0
   -2.3155    0.7475    0.0000 C   0  0  0  0  0  0  0  0  0  0  0  0
   -2.3155   -0.7475    0.0000 C   0  0  0  0  0  0  0  0  0  0  0  0
   -1.0028   -1.5132    0.0000 C   0  0  0  0  0  0  0  0  0  0  0  0
    4.0872    0.0382    0.0000 C   0  0  0  0  0  0  0  0  0  0  0  0
    4.8208    1.3475    0.0000 N   0  0  0  0  0  0  0  0  0  0  0  0
    6.2995    1.5073    0.0000 C   0  0  0  0  0  0  0  0  0  0  0  0
    6.5896    2.9790    0.0000 C   0  0  0  0  0  0  0  0  0  0  0  0
    5.2796    3.7097    0.0000 C   0  0  0  0  0  0  0  0  0  0  0  0
    4.1799    2.6896    0.0000 C   0  0  0  0  0  0  0  0  0  0  0  0
    2.1855   -2.6254    0.0000 C   0  0  0  0  0  0  0  0  0  0  0  0
    3.6552   -2.9294    0.0000 C   0  0  0  0  0  0  0  0  0  0  0  0
    4.1295   -4.3524    0.0000 C   0  0  0  0  0  0  0  0  0  0  0  0
    5.5991   -4.6533    0.0000 C   0  0  0  0  0  0  0  0  0  0  0  0
    6.5944   -3.5310    0.0000 C   0  0  0  0  0  0  0  0  0  0  0  0
    6.1201   -2.1080    0.0000 C   0  0  0  0  0  0  0  0  0  0  0  0
    4.6506   -1.8071    0.0000 C   0  0  0  0  0  0  0  0  0  0  0  0
    6.9164   -1.2102    0.0000 Cl  0  0  0  0  0  0  0  0  0  0  0  0
    5.9785   -5.7917    0.0000 Cl  0  0  0  0  0  0  0  0  0  0  0  0
   11.0891   -0.7087    0.0000 Cl  0  0  0  0  0  0  0  0  0  0  0  0
   18.4159   -1.1837    0.0000 Cl  0  0  0  0  0  0  0  0  0  0  0  0
   15.9159   -1.1837    0.0000 Cl  0  0  0  0  0  0  0  0  0  0  0  0
  2  3  2  0
  3  4  1  0
  4  5  1  0
  5  6  1  0
  2  6  1  0
  7  8  1  0
  8  9  2  0
  9 10  1  0
  5 10  2  0
  4  7  2  0
 12 13  1  0
 13 14  1  0
 14 15  1  0
 15 16  1  0
 12 16  1  0
 11 12  1  0
  2 11  1  0
 17 18  1  0
 18 19  1  0
 19 20  2  0
 20 21  1  0
 21 22  2  0
 22 23  1  0
 18 23  2  0
 22 24  1  0
 20 25  1  0
  6 17  1  0
M  END

> <chembl_id>
CHEMBL3217044

> <chembl_pref_name>
None

$$$$

     RDKit          2D

 25 27  0  0  0  0  0  0  0  0999 V2000
    4.2993    0.0000    0.0000 Cl  0  0  0  0  0  0  0  0  0  0  0  0
    1.1498    0.2548    0.0000 C   0  0  0  0  0  0  0  0  0  0  0  0
   -0.1878    0.6217    0.0000 N   0  0  0  0  0  0  0  0  0  0  0  0
    0.7312    0.6224    0.0000 C   0  0  0  0  0  0  0  0  0  0  0  0
    1.1968   -0.7321    0.0000 C   0  0  0  0  0  0  0  0  0  0  0  0
    1.2810    1.0584    0.0000 C   0  0  0  0  0  0  0  0  0  0  0  0
    0.3910   -0.9093    0.0000 C   0  0  0  0  0  0  0  0  0  0  0  0
    0.7926   -0.3307    0.0000 C   0  0  0  0  0  0  0  0  0  0  0  0
    0.1898    0.2441    0.0000 C   0  0  0  0  0  0  0  0  0  0  0  0
   -0.3147   -0.1802    0.0000 C   0  0  0  0  0  0  0  0  0  0  0  0
   -0.7239    1.2488    0.0000 C   0  0  0  0  0  0  0  0  0  0  0  0
    1.7531   -1.3413    0.0000 C   0  0  0  0  0  0  0  0  0  0  0  0
    0.1416   -1.6957    0.0000 C   0  0  0  0  0  0  0  0  0  0  0  0
    1.5037   -2.1277    0.0000 C   0  0  0  0  0  0  0  0  0  0  0  0
    1.7158    0.8550    0.0000 C   0  0  0  0  0  0  0  0  0  0  0  0
   -1.5350    1.0981    0.0000 C   0  0  0  0  0  0  0  0  0  0  0  0
    0.6979   -2.3049    0.0000 C   0  0  0  0  0  0  0  0  0  0  0  0
    1.6988    1.7697    0.0000 C   0  0  0  0  0  0  0  0  0  0  0  0
    2.0600   -2.7369    0.0000 O   0  0  0  0  0  0  0  0  0  0  0  0
   -1.8100    0.3203    0.0000 C   0  0  0  0  0  0  0  0  0  0  0  0
   -2.0711    1.7252    0.0000 C   0  0  0  0  0  0  0  0  0  0  0  0
   -2.8822    1.5745    0.0000 C   0  0  0  0  0  0  0  0  0  0  0  0
   -2.6212    0.1696    0.0000 C   0  0  0  0  0  0  0  0  0  0  0  0
   -3.1572    0.7967    0.0000 C   0  0  0  0  0  0  0  0  0  0  0  0
    0.0475   -0.1073    0.0000 H   0  0  0  0  0  0  0  0  0  0  0  0
  3  4  1  0
  2  5  1  0
  2  6  1  0
  4  6  1  0
  5  7  1  0
  4  8  1  0
  7  8  1  0
  2  9  1  0
  3 10  1  0
  9 10  1  0
  3 11  1  0
  5 12  2  0
  7 13  2  0
 12 14  1  0
  2 15  1  6
 11 16  1  0
 13 17  1  0
 14 17  2  0
  6 18  1  6
 14 19  1  0
 16 20  1  0
 16 21  2  0
 21 22  1  0
 20 23  2  0
 22 24  2  0
 23 24  1  0
  4 25  1  6
M  END

> <chembl_id>
CHEMBL2368614

> <chembl_pref_name>
None

$$$$

     RDKit          2D

 76 84  0  0  0  0  0  0  0  0999 V2000
   -0.6664    1.8469    0.0000 C   0  0  0  0  0  0  0  0  0  0  0  0
   -1.3658    2.2783    0.0000 C   0  0  0  0  0  0  0  0  0  0  0  0
   -1.3990    0.6294    0.0000 C   0  0  0  0  0  0  0  0  0  0  0  0
   -0.6799    1.0268    0.0000 C   0  0  0  0  0  0  0  0  0  0  0  0
   -2.7804    0.5431    0.0000 C   0  0  0  0  0  0  0  0  0  0  0  0
   -3.6221    2.2812    0.0000 C   0  0  0  0  0  0  0  0  0  0  0  0
   -2.7866    2.4594    0.0000 N   0  0  0  0  0  0  0  0  0  0  0  0
   -2.0896    1.8835    0.0000 C   0  0  0  0  0  0  0  0  0  0  0  0
   -2.1073    1.0581    0.0000 C   0  0  0  0  0  0  0  0  0  0  0  0
    0.0297    0.6017    0.0000 O   0  0  0  0  0  0  0  0  0  0  0  0
    0.0149   -0.2227    0.0000 C   0  0  0  0  0  0  0  0  0  0  0  0
   -3.5977    0.7063    0.0000 N   0  0  0  0  0  0  0  0  0  0  0  0
   -4.0068    1.5060    0.0000 C   0  0  0  0  0  0  0  0  0  0  0  0
   -4.8767    1.3778    0.0000 C   0  0  0  0  0  0  0  0  0  0  0  0
   -5.0312    0.4981    0.0000 C   0  0  0  0  0  0  0  0  0  0  0  0
   -4.2327    0.0787    0.0000 C   0  0  0  0  0  0  0  0  0  0  0  0
   -2.5895   -0.2635    0.0000 O   0  0  0  0  0  0  0  0  0  0  0  0
   -4.4114    2.2368    0.0000 H   0  0  0  0  0  0  0  0  0  0  0  0
    6.4890    1.1869    0.0000 C   0  0  0  0  0  0  0  0  0  0  0  0
    5.7847    0.7586    0.0000 C   0  0  0  0  0  0  0  0  0  0  0  0
    7.2024    0.7786    0.0000 C   0  0  0  0  0  0  0  0  0  0  0  0
    7.9183    1.1931    0.0000 N   0  0  0  0  0  0  0  0  0  0  0  0
    8.6368    0.7830    0.0000 C   0  0  0  0  0  0  0  0  0  0  0  0
    9.3464    1.1939    0.0000 C   0  0  0  0  0  0  0  0  0  0  0  0
    9.3482    2.0189    0.0000 N   0  0  0  0  0  0  0  0  0  0  0  0
    8.6342    2.4313    0.0000 C   0  0  0  0  0  0  0  0  0  0  0  0
    7.9183    2.0186    0.0000 C   0  0  0  0  0  0  0  0  0  0  0  0
   10.0616    2.4306    0.0000 C   0  0  0  0  0  0  0  0  0  0  0  0
   10.7784    2.0177    0.0000 C   0  0  0  0  0  0  0  0  0  0  0  0
   10.0622    3.2553    0.0000 O   0  0  0  0  0  0  0  0  0  0  0  0
   11.4918    2.4295    0.0000 C   0  0  0  0  0  0  0  0  0  0  0  0
   12.2044    2.0166    0.0000 C   0  0  0  0  0  0  0  0  0  0  0  0
   12.2016    1.1896    0.0000 C   0  0  0  0  0  0  0  0  0  0  0  0
   12.9176    0.7768    0.0000 C   0  0  0  0  0  0  0  0  0  0  0  0
   13.6319    1.1885    0.0000 C   0  0  0  0  0  0  0  0  0  0  0  0
   13.6300    2.0174    0.0000 C   0  0  0  0  0  0  0  0  0  0  0  0
   12.9175    2.4265    0.0000 C   0  0  0  0  0  0  0  0  0  0  0  0
   14.3452    0.7766    0.0000 O   0  0  0  0  0  0  0  0  0  0  0  0
   14.3418    2.4317    0.0000 O   0  0  0  0  0  0  0  0  0  0  0  0
   15.0602    2.0214    0.0000 C   0  0  0  0  0  0  0  0  0  0  0  0
   15.0579    1.1894    0.0000 C   0  0  0  0  0  0  0  0  0  0  0  0
   15.7753    0.7774    0.0000 C   0  0  0  0  0  0  0  0  0  0  0  0
   16.4882    1.1901    0.0000 C   0  0  0  0  0  0  0  0  0  0  0  0
   17.2014    0.7782    0.0000 O   0  0  0  0  0  0  0  0  0  0  0  0
   17.9184    1.1909    0.0000 C   0  0  0  0  0  0  0  0  0  0  0  0
   18.6277    0.7780    0.0000 C   0  0  0  0  0  0  0  0  0  0  0  0
   18.6218    2.4272    0.0000 C   0  0  0  0  0  0  0  0  0  0  0  0
   17.9124    2.0128    0.0000 C   0  0  0  0  0  0  0  0  0  0  0  0
   19.9995    2.5481    0.0000 C   0  0  0  0  0  0  0  0  0  0  0  0
   20.8801    0.8316    0.0000 C   0  0  0  0  0  0  0  0  0  0  0  0
   20.0453    0.6356    0.0000 N   0  0  0  0  0  0  0  0  0  0  0  0
   19.3410    1.1921    0.0000 C   0  0  0  0  0  0  0  0  0  0  0  0
   19.3400    2.0155    0.0000 C   0  0  0  0  0  0  0  0  0  0  0  0
   17.1928    2.4209    0.0000 O   0  0  0  0  0  0  0  0  0  0  0  0
   17.1879    3.2456    0.0000 C   0  0  0  0  0  0  0  0  0  0  0  0
   19.7907    3.3462    0.0000 O   0  0  0  0  0  0  0  0  0  0  0  0
   20.8269    2.4019    0.0000 N   0  0  0  0  0  0  0  0  0  0  0  0
   21.2367    1.6203    0.0000 C   0  0  0  0  0  0  0  0  0  0  0  0
   22.1077    1.7698    0.0000 C   0  0  0  0  0  0  0  0  0  0  0  0
   22.2329    2.6441    0.0000 C   0  0  0  0  0  0  0  0  0  0  0  0
   21.4420    3.0355    0.0000 C   0  0  0  0  0  0  0  0  0  0  0  0
   21.6417    0.9130    0.0000 H   0  0  0  0  0  0  0  0  0  0  0  0
    7.2048   -0.0459    0.0000 O   0  0  0  0  0  0  0  0  0  0  0  0
    5.0585    1.1551    0.0000 C   0  0  0  0  0  0  0  0  0  0  0  0
    5.0489    1.9789    0.0000 C   0  0  0  0  0  0  0  0  0  0  0  0
    4.3236    2.3752    0.0000 C   0  0  0  0  0  0  0  0  0  0  0  0
    3.6189    1.9472    0.0000 C   0  0  0  0  0  0  0  0  0  0  0  0
    3.6399    1.1185    0.0000 C   0  0  0  0  0  0  0  0  0  0  0  0
    4.3614    0.7259    0.0000 C   0  0  0  0  0  0  0  0  0  0  0  0
    4.3058    3.1996    0.0000 O   0  0  0  0  0  0  0  0  0  0  0  0
    5.0140    3.6259    0.0000 C   0  0  0  0  0  0  0  0  0  0  0  0
    2.8964    2.3427    0.0000 O   0  0  0  0  0  0  0  0  0  0  0  0
    2.1891    1.9137    0.0000 C   0  0  0  0  0  0  0  0  0  0  0  0
    1.4666    2.3092    0.0000 C   0  0  0  0  0  0  0  0  0  0  0  0
    0.7635    1.8803    0.0000 C   0  0  0  0  0  0  0  0  0  0  0  0
    0.0410    2.2758    0.0000 O   0  0  0  0  0  0  0  0  0  0  0  0
 37 32  1  0
  7  8  1  0
 35 38  1  0
 13 18  1  6
 36 39  1  0
  8  9  2  0
 39 40  1  0
  9  5  1  0
 38 41  1  0
 19 20  2  0
 41 42  1  0
  6  7  2  0
 42 43  1  0
  4  1  1  0
 43 44  1  0
 21 22  1  0
 44 45  1  0
 22 23  1  0
 45 46  2  0
 46 52  1  0
  4 10  1  0
 53 47  1  0
  2  8  1  0
 47 48  2  0
 48 45  1  0
 10 11  1  0
 12 13  1  0
 22 27  1  0
 23 24  1  0
 57 49  1  0
 58 50  1  0
 51 52  1  0
 52 53  2  0
 53 49  1  0
 50 51  2  0
 24 25  1  0
 48 54  1  0
 25 26  1  0
 54 55  1  0
 26 27  1  0
 49 56  2  0
 57 58  1  0
  9  3  1  0
 25 28  1  0
  1  2  2  0
 28 29  1  0
  3  4  2  0
 58 59  1  0
 59 60  1  0
 60 61  1  0
 61 57  1  0
 28 30  2  0
 58 62  1  6
 12  5  1  0
 21 63  2  0
 21 19  1  0
 29 31  2  0
 20 64  1  0
 13 14  1  0
 64 65  2  0
 31 32  1  0
 65 66  1  0
 14 15  1  0
 66 67  2  0
 32 33  2  0
 67 68  1  0
 15 16  1  0
 68 69  2  0
 69 64  1  0
 33 34  1  0
 66 70  1  0
 16 12  1  0
 70 71  1  0
 34 35  2  0
 67 72  1  0
 13  6  1  0
 72 73  1  0
 35 36  1  0
 73 74  1  0
  5 17  2  0
 74 75  1  0
 36 37  2  0
 75 76  1  0
 76  1  1  0
M  END

> <chembl_id>
CHEMBL1240654

> <chembl_pref_name>
None

$$$$

     RDKit          2D

 28 31  0  0  0  0  0  0  0  0999 V2000
    0.5745   -1.9155    0.0000 O   0  0  0  0  0  0  0  0  0  0  0  0
    6.3605   -2.0730    0.0000 O   0  0  0  0  0  0  0  0  0  0  0  0
    6.3605   -3.4079    0.0000 O   0  0  0  0  0  0  0  0  0  0  0  0
   -3.7123   -1.0905    0.0000 O   0  0  0  0  0  0  0  0  0  0  0  0
   -2.9978    0.1470    0.0000 O   0  0  0  0  0  0  0  0  0  0  0  0
    2.0035   -1.0905    0.0000 O   0  0  0  0  0  0  0  0  0  0  0  0
   -1.5689   -3.1530    0.0000 N   0  0  0  0  0  0  0  0  0  0  0  0
   -0.1399   -3.1530    0.0000 N   0  0  0  0  0  0  0  0  0  0  0  0
   -2.9978   -0.6780    0.0000 N   0  0  0  0  0  0  0  0  0  0  0  0
    2.7180   -2.3280    0.0000 N   0  0  0  0  0  0  0  0  0  0  0  0
   -0.8544   -1.9155    0.0000 C   0  0  0  0  0  0  0  0  0  0  0  0
   -1.5689   -2.3280    0.0000 C   0  0  0  0  0  0  0  0  0  0  0  0
   -0.1399   -2.3280    0.0000 C   0  0  0  0  0  0  0  0  0  0  0  0
   -2.2833   -1.0905    0.0000 C   0  0  0  0  0  0  0  0  0  0  0  0
    5.5758   -2.3280    0.0000 C   0  0  0  0  0  0  0  0  0  0  0  0
   -2.2833   -1.9155    0.0000 C   0  0  0  0  0  0  0  0  0  0  0  0
    5.5758   -3.1530    0.0000 C   0  0  0  0  0  0  0  0  0  0  0  0
   -0.8544   -1.0905    0.0000 C   0  0  0  0  0  0  0  0  0  0  0  0
   -1.5689   -0.6780    0.0000 C   0  0  0  0  0  0  0  0  0  0  0  0
    4.1469   -2.3280    0.0000 C   0  0  0  0  0  0  0  0  0  0  0  0
    4.8614   -1.9155    0.0000 C   0  0  0  0  0  0  0  0  0  0  0  0
   -0.8544   -3.5655    0.0000 C   0  0  0  0  0  0  0  0  0  0  0  0
    4.8614   -3.5655    0.0000 C   0  0  0  0  0  0  0  0  0  0  0  0
    4.1469   -3.1530    0.0000 C   0  0  0  0  0  0  0  0  0  0  0  0
    6.8454   -2.7405    0.0000 C   0  0  0  0  0  0  0  0  0  0  0  0
    3.4324   -1.9155    0.0000 C   0  0  0  0  0  0  0  0  0  0  0  0
    1.2890   -2.3280    0.0000 C   0  0  0  0  0  0  0  0  0  0  0  0
    2.0035   -1.9155    0.0000 C   0  0  0  0  0  0  0  0  0  0  0  0
  1 13  1  0
  1 27  1  0
  2 15  1  0
  2 25  1  0
  3 17  1  0
  3 25  1  0
  4  9  1  0
  5  9  2  0
  6 28  2  0
  7 12  1  0
  7 22  2  0
  8 13  2  0
  8 22  1  0
  9 14  1  0
 10 26  1  0
 10 28  1  0
 11 12  1  0
 11 13  1  0
 11 18  2  0
 12 16  2  0
 14 16  1  0
 14 19  2  0
 15 17  1  0
 15 21  2  0
 17 23  2  0
 18 19  1  0
 20 21  1  0
 20 24  2  0
 20 26  1  0
 23 24  1  0
 27 28  1  0
M  CHG  2   4  -1   9   1
M  END

> <chembl_id>
CHEMBL1420694

> <chembl_pref_name>
None

$$$$

     RDKit          2D

 22 22  0  0  0  0  0  0  0  0999 V2000
    4.5528    0.0000    0.0000 Cl  0  0  0  0  0  0  0  0  0  0  0  0
   -1.9733    0.1179    0.0000 Cl  0  0  0  0  0  0  0  0  0  0  0  0
   -0.5444    2.5929    0.0000 O   0  0  0  0  0  0  0  0  0  0  0  0
   -1.9733    1.7679    0.0000 O   0  0  0  0  0  0  0  0  0  0  0  0
    0.8846   -0.7071    0.0000 N   0  0  0  0  0  0  0  0  0  0  0  0
    1.5991   -3.5946    0.0000 N   0  0  0  0  0  0  0  0  0  0  0  0
   -1.2588    1.3554    0.0000 C   0  0  0  0  0  0  0  0  0  0  0  0
   -0.5444    1.7679    0.0000 C   0  0  0  0  0  0  0  0  0  0  0  0
   -1.2588    0.5304    0.0000 C   0  0  0  0  0  0  0  0  0  0  0  0
    0.1701    0.5304    0.0000 C   0  0  0  0  0  0  0  0  0  0  0  0
    0.1701    1.3554    0.0000 C   0  0  0  0  0  0  0  0  0  0  0  0
   -0.5444    0.1179    0.0000 C   0  0  0  0  0  0  0  0  0  0  0  0
    0.8846    0.1179    0.0000 C   0  0  0  0  0  0  0  0  0  0  0  0
    1.5991   -1.9446    0.0000 C   0  0  0  0  0  0  0  0  0  0  0  0
   -1.2588    3.0054    0.0000 C   0  0  0  0  0  0  0  0  0  0  0  0
    1.5991   -1.1196    0.0000 C   0  0  0  0  0  0  0  0  0  0  0  0
   -2.6878    1.3554    0.0000 C   0  0  0  0  0  0  0  0  0  0  0  0
    0.8846   -2.3571    0.0000 C   0  0  0  0  0  0  0  0  0  0  0  0
    2.3135   -2.3571    0.0000 C   0  0  0  0  0  0  0  0  0  0  0  0
    0.8846   -3.1821    0.0000 C   0  0  0  0  0  0  0  0  0  0  0  0
    2.3135   -3.1821    0.0000 C   0  0  0  0  0  0  0  0  0  0  0  0
   -1.2588    3.8304    0.0000 C   0  0  0  0  0  0  0  0  0  0  0  0
  2  9  1  0
  3  8  1  0
  3 15  1  0
  4  7  1  0
  4 17  1  0
  5 13  1  0
  5 16  1  0
  6 20  2  0
  6 21  1  0
  7  8  1  0
  7  9  2  0
  8 11  2  0
  9 12  1  0
 10 11  1  0
 10 12  2  0
 10 13  1  0
 14 16  1  0
 14 18  2  0
 14 19  1  0
 15 22  1  0
 18 20  1  0
 19 21  2  0
M  END

> <chembl_id>
CHEMBL1710185

> <chembl_pref_name>
None

$$$$

     RDKit          2D

 29 31  0  0  0  0  0  0  0  0999 V2000
   -5.2335    1.1029    0.0000 O   0  0  0  0  0  0  0  0  0  0  0  0
   -8.0914    3.5779    0.0000 O   0  0  0  0  0  0  0  0  0  0  0  0
   -0.9467    1.9279    0.0000 O   0  0  0  0  0  0  0  0  0  0  0  0
   -4.5190    2.3404    0.0000 N   0  0  0  0  0  0  0  0  0  0  0  0
   -2.3756    1.1029    0.0000 N   0  0  0  0  0  0  0  0  0  0  0  0
   -0.2322    0.6904    0.0000 N   0  0  0  0  0  0  0  0  0  0  0  0
   -5.9480    2.3404    0.0000 C   0  0  0  0  0  0  0  0  0  0  0  0
   -5.2335    1.9279    0.0000 C   0  0  0  0  0  0  0  0  0  0  0  0
   -3.8046    1.9279    0.0000 C   0  0  0  0  0  0  0  0  0  0  0  0
   -6.6624    1.9279    0.0000 C   0  0  0  0  0  0  0  0  0  0  0  0
   -5.9480    3.1654    0.0000 C   0  0  0  0  0  0  0  0  0  0  0  0
   -3.8046    1.1029    0.0000 C   0  0  0  0  0  0  0  0  0  0  0  0
   -3.0901    2.3404    0.0000 C   0  0  0  0  0  0  0  0  0  0  0  0
   -7.3769    3.1654    0.0000 C   0  0  0  0  0  0  0  0  0  0  0  0
   -3.0901    0.6904    0.0000 C   0  0  0  0  0  0  0  0  0  0  0  0
   -2.3756    1.9279    0.0000 C   0  0  0  0  0  0  0  0  0  0  0  0
   -7.3769    2.3404    0.0000 C   0  0  0  0  0  0  0  0  0  0  0  0
   -6.6624    3.5779    0.0000 C   0  0  0  0  0  0  0  0  0  0  0  0
   -1.6611    0.6904    0.0000 C   0  0  0  0  0  0  0  0  0  0  0  0
   -0.9467    1.1029    0.0000 C   0  0  0  0  0  0  0  0  0  0  0  0
    1.1967    0.6904    0.0000 C   0  0  0  0  0  0  0  0  0  0  0  0
    0.4823    1.1029    0.0000 C   0  0  0  0  0  0  0  0  0  0  0  0
    1.9112    1.1029    0.0000 C   0  0  0  0  0  0  0  0  0  0  0  0
    1.1967   -0.1346    0.0000 C   0  0  0  0  0  0  0  0  0  0  0  0
   -8.0914    4.4029    0.0000 C   0  0  0  0  0  0  0  0  0  0  0  0
    2.6257    0.6904    0.0000 C   0  0  0  0  0  0  0  0  0  0  0  0
    1.9112   -0.5471    0.0000 C   0  0  0  0  0  0  0  0  0  0  0  0
    2.6257   -0.1346    0.0000 C   0  0  0  0  0  0  0  0  0  0  0  0
   -8.8058    4.8154    0.0000 C   0  0  0  0  0  0  0  0  0  0  0  0
  1  8  2  0
  2 14  1  0
  2 25  1  0
  3 20  2  0
  4  8  1  0
  4  9  1  0
  5 15  1  0
  5 16  1  0
  5 19  1  0
  6 20  1  0
  6 22  1  0
  7  8  1  0
  7 10  2  0
  7 11  1  0
  9 12  1  0
  9 13  1  0
 10 17  1  0
 11 18  2  0
 12 15  1  0
 13 16  1  0
 14 17  2  0
 14 18  1  0
 19 20  1  0
 21 22  1  0
 21 23  2  0
 21 24  1  0
 23 26  1  0
 24 27  2  0
 25 29  1  0
 26 28  2  0
 27 28  1  0
M  END

> <chembl_id>
CHEMBL1340695

> <chembl_pref_name>
None

$$$$

     RDKit          2D

 39 41  0  0  0  0  0  0  0  0999 V2000
    8.9792   -0.6417    0.0000 Na  0  0  0  0  0 15  0  0  0  0  0  0
    7.7000   -3.8792    0.0000 S   0  0  0  0  0  0  0  0  0  0  0  0
    1.2542   -2.6375    0.0000 N   0  0  0  0  0  0  0  0  0  0  0  0
    7.7042   -4.7042    0.0000 C   0  0  0  0  0  0  0  0  0  0  0  0
    0.5417   -2.2250    0.0000 C   0  0  0  0  0  0  0  0  0  0  0  0
    6.9750   -0.9875    0.0000 C   0  0  0  0  0  0  0  0  0  0  0  0
    6.9792   -3.4667    0.0000 O   0  0  0  0  0  0  0  0  0  0  0  0
    8.4125   -4.2917    0.0000 O   0  0  0  0  0  0  0  0  0  0  0  0
   -0.1708   -2.6375    0.0000 C   0  0  0  0  0  0  0  0  0  0  0  0
    4.8292   -3.8875    0.0000 C   0  0  0  0  0  0  0  0  0  0  0  0
    8.4125   -3.4542    0.0000 N   0  0  0  0  0  0  0  0  0  0  0  0
    6.9917   -5.1167    0.0000 C   0  0  0  0  0  0  0  0  0  0  0  0
    0.5417   -1.4000    0.0000 C   0  0  0  0  0  0  0  0  0  0  0  0
    6.2625   -1.4000    0.0000 C   0  0  0  0  0  0  0  0  0  0  0  0
    7.6917   -1.4000    0.0000 O   0  0  0  0  0  0  0  0  0  0  0  0
    4.1167   -3.4750    0.0000 C   0  0  0  0  0  0  0  0  0  0  0  0
    6.9750   -0.1542    0.0000 O   0  0  0  0  0  0  0  0  0  0  0  0
    1.9667   -2.2250    0.0000 C   0  0  0  0  0  0  0  0  0  0  0  0
    6.2792   -4.7042    0.0000 C   0  0  0  0  0  0  0  0  0  0  0  0
    5.5542   -3.4667    0.0000 C   0  0  0  0  0  0  0  0  0  0  0  0
    6.2750   -3.8792    0.0000 C   0  0  0  0  0  0  0  0  0  0  0  0
   -0.8875   -2.2250    0.0000 C   0  0  0  0  0  0  0  0  0  0  0  0
   -0.1708   -0.9875    0.0000 C   0  0  0  0  0  0  0  0  0  0  0  0
    1.2542   -0.9875    0.0000 C   0  0  0  0  0  0  0  0  0  0  0  0
    2.6875   -3.4750    0.0000 O   0  0  0  0  0  0  0  0  0  0  0  0
    5.5500   -2.6417    0.0000 S   0  0  0  0  0  0  0  0  0  0  0  0
    3.4000   -3.8875    0.0000 C   0  0  0  0  0  0  0  0  0  0  0  0
    6.2625   -2.2292    0.0000 C   0  0  0  0  0  0  0  0  0  0  0  0
    2.6917   -2.6417    0.0000 C   0  0  0  0  0  0  0  0  0  0  0  0
    1.9667   -1.4000    0.0000 C   0  0  0  0  0  0  0  0  0  0  0  0
   -0.8875   -1.4000    0.0000 C   0  0  0  0  0  0  0  0  0  0  0  0
   -1.6083   -2.6417    0.0000 Cl  0  0  0  0  0  0  0  0  0  0  0  0
    4.8292   -4.7167    0.0000 C   0  0  0  0  0  0  0  0  0  0  0  0
    8.4250   -5.1167    0.0000 C   0  0  0  0  0  0  0  0  0  0  0  0
    4.1125   -5.1292    0.0000 C   0  0  0  0  0  0  0  0  0  0  0  0
    6.9917   -5.9417    0.0000 C   0  0  0  0  0  0  0  0  0  0  0  0
    3.4000   -4.7167    0.0000 C   0  0  0  0  0  0  0  0  0  0  0  0
    8.4250   -5.9417    0.0000 C   0  0  0  0  0  0  0  0  0  0  0  0
    7.7042   -6.3542    0.0000 C   0  0  0  0  0  0  0  0  0  0  0  0
  3 18  2  0
  4  2  1  0
  5  3  1  0
  6 14  1  0
  7  2  2  0
  8  2  2  0
  9  5  2  0
 10 20  1  0
 11  2  1  0
 12  4  1  0
 13 24  1  0
 14 28  1  0
 15  6  1  0
 16 10  2  0
 17  6  2  0
 18 29  1  0
 19 12  1  0
 20 21  1  0
 21 19  1  0
 22  9  1  0
 23 13  2  0
 24 30  2  0
 25 27  1  0
 26 20  1  0
 27 16  1  0
 28 26  1  0
 29 25  1  0
 30 18  1  0
 31 23  1  0
 32 22  1  0
 33 10  1  0
 34  4  2  0
 35 33  2  0
 36 12  2  0
 37 35  1  0
 38 34  1  0
 39 38  2  0
 36 39  1  0
 27 37  2  0
 13  5  1  0
 31 22  2  0
M  CHG  2   1   1  15  -1
M  END

> <chembl_id>
CHEMBL15292

> <chembl_pref_name>
None

$$$$

     RDKit          2D

 17 18  0  0  0  0  0  0  0  0999 V2000
   -0.6395    0.8739    0.0000 S   0  0  0  0  0  0  0  0  0  0  0  0
   -0.2270    1.5884    0.0000 O   0  0  0  0  0  0  0  0  0  0  0  0
   -1.0520    0.1594    0.0000 O   0  0  0  0  0  0  0  0  0  0  0  0
    0.0750   -0.3636    0.0000 N   0  0  0  0  0  0  0  0  0  0  0  0
    0.7895    1.6989    0.0000 N   0  0  0  0  0  0  0  0  0  0  0  0
    0.0750    0.4614    0.0000 C   0  0  0  0  0  0  0  0  0  0  0  0
   -1.3539    1.2864    0.0000 C   0  0  0  0  0  0  0  0  0  0  0  0
    0.7895    0.8739    0.0000 C   0  0  0  0  0  0  0  0  0  0  0  0
   -2.0684    0.8739    0.0000 C   0  0  0  0  0  0  0  0  0  0  0  0
   -1.3539    2.1114    0.0000 C   0  0  0  0  0  0  0  0  0  0  0  0
    1.5039    0.4614    0.0000 C   0  0  0  0  0  0  0  0  0  0  0  0
    0.7895   -0.7761    0.0000 C   0  0  0  0  0  0  0  0  0  0  0  0
   -2.7829    1.2864    0.0000 C   0  0  0  0  0  0  0  0  0  0  0  0
   -2.0684    2.5239    0.0000 C   0  0  0  0  0  0  0  0  0  0  0  0
   -2.7829    2.1114    0.0000 C   0  0  0  0  0  0  0  0  0  0  0  0
    1.5039   -0.3636    0.0000 C   0  0  0  0  0  0  0  0  0  0  0  0
   -3.4973    2.5239    0.0000 C   0  0  0  0  0  0  0  0  0  0  0  0
  1  2  2  0
  1  3  2  0
  1  6  1  0
  1  7  1  0
  4  6  2  0
  4 12  1  0
  5  8  1  0
  6  8  1  0
  7  9  2  0
  7 10  1  0
  8 11  2  0
  9 13  1  0
 10 14  2  0
 11 16  1  0
 12 16  2  0
 13 15  2  0
 14 15  1  0
 15 17  1  0
M  END

> <chembl_id>
CHEMBL1340594

> <chembl_pref_name>
None

$$$$

     RDKit          2D

 26 29  0  0  0  0  0  0  0  0999 V2000
    2.1060    1.5400    0.0000 S   0  0  0  0  0  0  0  0  0  0  0  0
   -0.8842   -2.4956    0.0000 O   0  0  0  0  0  0  0  0  0  0  0  0
    2.7734    1.0551    0.0000 O   0  0  0  0  0  0  0  0  0  0  0  0
    1.4385    2.0249    0.0000 O   0  0  0  0  0  0  0  0  0  0  0  0
    0.5019   -1.8834    0.0000 O   0  0  0  0  0  0  0  0  0  0  0  0
    2.5909    2.2074    0.0000 N   0  0  0  0  0  0  0  0  0  0  0  0
   -0.6542   -1.0435    0.0000 N   0  0  0  0  0  0  0  0  0  0  0  0
   -2.2190   -2.4956    0.0000 N   0  0  0  0  0  0  0  0  0  0  0  0
   -1.9641   -1.7110    0.0000 N   0  0  0  0  0  0  0  0  0  0  0  0
    1.6211    0.8726    0.0000 C   0  0  0  0  0  0  0  0  0  0  0  0
   -1.5516   -2.9805    0.0000 C   0  0  0  0  0  0  0  0  0  0  0  0
   -1.5516   -3.8055    0.0000 C   0  0  0  0  0  0  0  0  0  0  0  0
    0.6512   -0.4623    0.0000 C   0  0  0  0  0  0  0  0  0  0  0  0
   -1.1391   -1.7110    0.0000 C   0  0  0  0  0  0  0  0  0  0  0  0
    1.9566    0.1189    0.0000 C   0  0  0  0  0  0  0  0  0  0  0  0
    0.8006    0.9588    0.0000 C   0  0  0  0  0  0  0  0  0  0  0  0
    0.1663   -1.1298    0.0000 C   0  0  0  0  0  0  0  0  0  0  0  0
    1.4717   -0.5486    0.0000 C   0  0  0  0  0  0  0  0  0  0  0  0
    0.3157    0.2913    0.0000 C   0  0  0  0  0  0  0  0  0  0  0  0
   -1.1391   -4.5200    0.0000 C   0  0  0  0  0  0  0  0  0  0  0  0
   -1.9641   -4.5200    0.0000 C   0  0  0  0  0  0  0  0  0  0  0  0
    2.2554    2.9611    0.0000 C   0  0  0  0  0  0  0  0  0  0  0  0
    3.4114    2.1212    0.0000 C   0  0  0  0  0  0  0  0  0  0  0  0
    2.7403    3.6285    0.0000 C   0  0  0  0  0  0  0  0  0  0  0  0
    3.8963    2.7886    0.0000 C   0  0  0  0  0  0  0  0  0  0  0  0
    3.5608    3.5423    0.0000 C   0  0  0  0  0  0  0  0  0  0  0  0
  1  3  2  0
  1  4  2  0
  1  6  1  0
  1 10  1  0
  2 11  1  0
  2 14  1  0
  5 17  2  0
  6 22  1  0
  6 23  1  0
  7 14  1  0
  7 17  1  0
  8  9  1  0
  8 11  2  0
  9 14  2  0
 10 15  2  0
 10 16  1  0
 11 12  1  0
 12 20  1  0
 12 21  1  0
 13 17  1  0
 13 18  2  0
 13 19  1  0
 15 18  1  0
 16 19  2  0
 20 21  1  0
 22 24  1  0
 23 25  1  0
 24 26  1  0
 25 26  1  0
M  END

> <chembl_id>
CHEMBL1542694

> <chembl_pref_name>
None

$$$$

     RDKit          2D

 23 25  0  0  0  0  0  0  0  0999 V2000
    0.3906   -0.1021    0.0000 O   0  0  0  0  0  0  0  0  0  0  0  0
    3.1997    1.5479    0.0000 O   0  0  0  0  0  0  0  0  0  0  0  0
    4.6286   -0.9271    0.0000 O   0  0  0  0  0  0  0  0  0  0  0  0
    1.7006    0.5653    0.0000 N   0  0  0  0  0  0  0  0  0  0  0  0
    3.1997   -0.9271    0.0000 N   0  0  0  0  0  0  0  0  0  0  0  0
    3.9141    0.3104    0.0000 N   0  0  0  0  0  0  0  0  0  0  0  0
    1.7006   -0.7695    0.0000 N   0  0  0  0  0  0  0  0  0  0  0  0
    2.4852    0.3104    0.0000 C   0  0  0  0  0  0  0  0  0  0  0  0
    2.4852   -0.5146    0.0000 C   0  0  0  0  0  0  0  0  0  0  0  0
    3.1997    0.7229    0.0000 C   0  0  0  0  0  0  0  0  0  0  0  0
    1.2156   -0.1021    0.0000 C   0  0  0  0  0  0  0  0  0  0  0  0
    3.9141   -0.5146    0.0000 C   0  0  0  0  0  0  0  0  0  0  0  0
    1.4456    1.3500    0.0000 C   0  0  0  0  0  0  0  0  0  0  0  0
    3.1997   -1.7521    0.0000 C   0  0  0  0  0  0  0  0  0  0  0  0
    4.6286    0.7229    0.0000 C   0  0  0  0  0  0  0  0  0  0  0  0
   -0.0219    0.6124    0.0000 C   0  0  0  0  0  0  0  0  0  0  0  0
   -0.8469    0.6124    0.0000 C   0  0  0  0  0  0  0  0  0  0  0  0
   -1.2594    1.3268    0.0000 C   0  0  0  0  0  0  0  0  0  0  0  0
   -2.0844    1.3268    0.0000 C   0  0  0  0  0  0  0  0  0  0  0  0
   -0.8469    2.0413    0.0000 C   0  0  0  0  0  0  0  0  0  0  0  0
   -2.4969    2.0413    0.0000 C   0  0  0  0  0  0  0  0  0  0  0  0
   -1.2594    2.7558    0.0000 C   0  0  0  0  0  0  0  0  0  0  0  0
   -2.0844    2.7558    0.0000 C   0  0  0  0  0  0  0  0  0  0  0  0
  1 11  1  0
  1 16  1  0
  2 10  2  0
  3 12  2  0
  4  8  1  0
  4 11  1  0
  4 13  1  0
  5  9  1  0
  5 12  1  0
  5 14  1  0
  6 10  1  0
  6 12  1  0
  6 15  1  0
  7  9  1  0
  7 11  2  0
  8  9  2  0
  8 10  1  0
 16 17  1  0
 17 18  1  0
 18 19  2  0
 18 20  1  0
 19 21  1  0
 20 22  2  0
 21 23  2  0
 22 23  1  0
M  END

> <chembl_id>
CHEMBL1400294

> <chembl_pref_name>
None

$$$$

     RDKit          2D

 19 19  0  0  0  0  0  0  0  0999 V2000
    5.1920    0.4554    0.0000 O   0  0  0  0  0  0  0  0  0  0  0  0
    4.4487   -0.8320    0.0000 O   0  0  0  0  0  0  0  0  0  0  0  0
    6.5593   -0.3672    0.0000 N   0  0  0  0  0  0  0  0  0  0  0  0
    3.7714    0.8936    0.0000 C   0  0  0  0  0  0  0  0  0  0  0  0
    3.3589    0.1792    0.0000 C   0  0  0  0  0  0  0  0  0  0  0  0
    5.1303   -0.3672    0.0000 C   0  0  0  0  0  0  0  0  0  0  0  0
    4.5872    1.0166    0.0000 C   0  0  0  0  0  0  0  0  0  0  0  0
    3.6603   -0.5888    0.0000 C   0  0  0  0  0  0  0  0  0  0  0  0
    3.3589    1.6081    0.0000 C   0  0  0  0  0  0  0  0  0  0  0  0
    2.5339    0.1792    0.0000 C   0  0  0  0  0  0  0  0  0  0  0  0
    2.5339    1.6081    0.0000 C   0  0  0  0  0  0  0  0  0  0  0  0
    2.1214    0.8936    0.0000 C   0  0  0  0  0  0  0  0  0  0  0  0
    5.8448   -0.7797    0.0000 C   0  0  0  0  0  0  0  0  0  0  0  0
    7.2737   -0.7797    0.0000 C   0  0  0  0  0  0  0  0  0  0  0  0
    7.9882   -0.3672    0.0000 C   0  0  0  0  0  0  0  0  0  0  0  0
    8.7027   -0.7797    0.0000 C   0  0  0  0  0  0  0  0  0  0  0  0
    9.4172   -0.3672    0.0000 C   0  0  0  0  0  0  0  0  0  0  0  0
    8.7027   -1.6047    0.0000 C   0  0  0  0  0  0  0  0  0  0  0  0
    0.0000    0.0000    0.0000 Cl  0  0  0  0  0  0  0  0  0  0  0  0
  1  6  1  0
  1  7  1  0
  2  6  1  0
  2  8  1  0
  3 13  1  0
  3 14  1  0
  4  5  1  0
  4  7  1  0
  4  9  2  0
  5  8  1  0
  5 10  2  0
  6 13  1  0
  9 11  1  0
 10 12  1  0
 11 12  2  0
 14 15  1  0
 15 16  1  0
 16 17  1  0
 16 18  1  0
M  END

> <chembl_id>
CHEMBL1342694

> <chembl_pref_name>
None

$$$$

     RDKit          2D

 16 17  0  0  0  0  0  0  0  0999 V2000
   -2.1307   -0.7720    0.0000 O   0  0  0  0  0  0  0  0  0  0  0  0
   -2.8451    0.4655    0.0000 O   0  0  0  0  0  0  0  0  0  0  0  0
   -0.7017    1.7030    0.0000 N   0  0  0  0  0  0  0  0  0  0  0  0
   -2.1307    1.7030    0.0000 N   0  0  0  0  0  0  0  0  0  0  0  0
   -1.4162    0.4655    0.0000 C   0  0  0  0  0  0  0  0  0  0  0  0
    0.0127    0.4655    0.0000 C   0  0  0  0  0  0  0  0  0  0  0  0
    0.0127    1.2905    0.0000 C   0  0  0  0  0  0  0  0  0  0  0  0
   -1.4162    1.2905    0.0000 C   0  0  0  0  0  0  0  0  0  0  0  0
   -0.7017    0.0530    0.0000 C   0  0  0  0  0  0  0  0  0  0  0  0
   -2.1307    0.0530    0.0000 C   0  0  0  0  0  0  0  0  0  0  0  0
    0.7272    0.0530    0.0000 C   0  0  0  0  0  0  0  0  0  0  0  0
    0.7272    1.7030    0.0000 C   0  0  0  0  0  0  0  0  0  0  0  0
    1.4417    0.4655    0.0000 C   0  0  0  0  0  0  0  0  0  0  0  0
    1.4417    1.2905    0.0000 C   0  0  0  0  0  0  0  0  0  0  0  0
   -2.8451   -1.1845    0.0000 C   0  0  0  0  0  0  0  0  0  0  0  0
   -2.8451   -2.0095    0.0000 C   0  0  0  0  0  0  0  0  0  0  0  0
  1 10  1  0
  1 15  1  0
  2 10  2  0
  3  7  1  0
  3  8  2  0
  4  8  1  0
  5  8  1  0
  5  9  2  0
  5 10  1  0
  6  7  2  0
  6  9  1  0
  6 11  1  0
  7 12  1  0
 11 13  1  0
 12 14  1  0
 13 14  1  0
 15 16  1  0
M  END

> <chembl_id>
CHEMBL1450694

> <chembl_pref_name>
None

$$$$

     RDKit          2D

 16 18  0  0  0  0  0  0  0  0999 V2000
    5.2667   -6.3750    0.0000 S   0  0  0  0  0  0  0  0  0  0  0  0
    5.2667   -4.7167    0.0000 C   0  0  0  0  0  0  0  0  0  0  0  0
    5.9875   -5.1292    0.0000 C   0  0  0  0  0  0  0  0  0  0  0  0
    5.9875   -5.9542    0.0000 C   0  0  0  0  0  0  0  0  0  0  0  0
    4.5542   -5.1292    0.0000 C   0  0  0  0  0  0  0  0  0  0  0  0
    4.5542   -5.9542    0.0000 C   0  0  0  0  0  0  0  0  0  0  0  0
    5.2667   -3.8917    0.0000 O   0  0  0  0  0  0  0  0  0  0  0  0
    6.7000   -6.3667    0.0000 C   0  0  0  0  0  0  0  0  0  0  0  0
    6.7000   -4.7167    0.0000 C   0  0  0  0  0  0  0  0  0  0  0  0
    3.8417   -4.7167    0.0000 C   0  0  0  0  0  0  0  0  0  0  0  0
    3.8417   -6.3750    0.0000 C   0  0  0  0  0  0  0  0  0  0  0  0
    7.4125   -5.1292    0.0000 C   0  0  0  0  0  0  0  0  0  0  0  0
    7.4125   -5.9542    0.0000 C   0  0  0  0  0  0  0  0  0  0  0  0
    6.7000   -7.1917    0.0000 C   0  0  0  0  0  0  0  0  0  0  0  0
    3.1292   -5.1375    0.0000 C   0  0  0  0  0  0  0  0  0  0  0  0
    3.1292   -5.9625    0.0000 C   0  0  0  0  0  0  0  0  0  0  0  0
  2  5  1  0
  3  4  2  0
  4  1  1  0
  5  6  1  0
  6  1  1  0
  7  2  2  0
  8  4  1  0
  9  3  1  0
 10  5  2  0
 11  6  2  0
 12 13  1  0
 13  8  2  0
 14  8  1  0
 15 16  2  0
 16 11  1  0
  3  2  1  0
 10 15  1  0
 12  9  2  0
M  END

> <chembl_id>
CHEMBL303050

> <chembl_pref_name>
None

$$$$

     RDKit          2D

 16 16  0  0  0  0  0  0  0  0999 V2000
    3.4563    1.9199    0.0000 S   0  0  0  0  0  0  0  0  0  0  0  0
    2.0744    0.1975    0.0000 O   0  0  0  0  0  0  0  0  0  0  0  0
    3.5033   -0.6275    0.0000 N   0  0  0  0  0  0  0  0  0  0  0  0
    3.9158   -1.8970    0.0000 N   0  0  0  0  0  0  0  0  0  0  0  0
    2.7889    0.6100    0.0000 C   0  0  0  0  0  0  0  0  0  0  0  0
    2.7889    1.4350    0.0000 C   0  0  0  0  0  0  0  0  0  0  0  0
    3.5033    0.1975    0.0000 C   0  0  0  0  0  0  0  0  0  0  0  0
    4.1708   -1.1124    0.0000 C   0  0  0  0  0  0  0  0  0  0  0  0
    2.8359   -1.1124    0.0000 C   0  0  0  0  0  0  0  0  0  0  0  0
    3.0908   -1.8970    0.0000 C   0  0  0  0  0  0  0  0  0  0  0  0
    2.1214    1.9199    0.0000 C   0  0  0  0  0  0  0  0  0  0  0  0
    3.2014    2.7046    0.0000 C   0  0  0  0  0  0  0  0  0  0  0  0
    2.3764    2.7046    0.0000 C   0  0  0  0  0  0  0  0  0  0  0  0
    4.4008   -2.5645    0.0000 C   0  0  0  0  0  0  0  0  0  0  0  0
    5.2212   -2.4782    0.0000 C   0  0  0  0  0  0  0  0  0  0  0  0
    0.0000    0.0000    0.0000 Br  0  0  0  0  0  0  0  0  0  0  0  0
  1  6  1  0
  1 12  1  0
  2  5  2  0
  3  7  1  0
  3  8  2  0
  3  9  1  0
  4  8  1  0
  4 10  1  0
  4 14  1  0
  5  6  1  0
  5  7  1  0
  6 11  2  0
  9 10  2  0
 11 13  1  0
 12 13  2  0
 14 15  2  0
M  CHG  2   3   1  16  -1
M  END

> <chembl_id>
CHEMBL1708830

> <chembl_pref_name>
None

$$$$

     RDKit          2D

 19 20  0  0  0  0  0  0  0  0999 V2000
   17.2962   -7.5756    0.0000 S   0  0  0  0  0  0  0  0  0  0  0  0
   18.1064   -7.4199    0.0000 S   0  0  0  0  0  0  0  0  0  0  0  0
   18.2106   -6.6014    0.0000 C   0  0  0  0  0  0  0  0  0  0  0  0
   17.4615   -6.2497    0.0000 C   0  0  0  0  0  0  0  0  0  0  0  0
   16.9002   -6.8531    0.0000 C   0  0  0  0  0  0  0  0  0  0  0  0
   18.9336   -6.2040    0.0000 C   0  0  0  0  0  0  0  0  0  0  0  0
   19.6392   -6.6314    0.0000 C   0  0  0  0  0  0  0  0  0  0  0  0
   20.3622   -6.2341    0.0000 C   0  0  0  0  0  0  0  0  0  0  0  0
   21.0679   -6.6615    0.0000 C   0  0  0  0  0  0  0  0  0  0  0  0
   21.7908   -6.2641    0.0000 C   0  0  0  0  0  0  0  0  0  0  0  0
   22.4965   -6.6915    0.0000 N   0  0  0  0  0  0  0  0  0  0  0  0
   21.8082   -5.4393    0.0000 O   0  0  0  0  0  0  0  0  0  0  0  0
   23.2195   -6.2941    0.0000 C   0  0  0  0  0  0  0  0  0  0  0  0
   23.9268   -6.7242    0.0000 C   0  0  0  0  0  0  0  0  0  0  0  0
   24.6492   -6.3275    0.0000 C   0  0  0  0  0  0  0  0  0  0  0  0
   24.6670   -5.5018    0.0000 C   0  0  0  0  0  0  0  0  0  0  0  0
   23.9564   -5.0744    0.0000 C   0  0  0  0  0  0  0  0  0  0  0  0
   23.2368   -5.4736    0.0000 C   0  0  0  0  0  0  0  0  0  0  0  0
   23.9708   -4.2496    0.0000 Cl  0  0  0  0  0  0  0  0  0  0  0  0
  4  5  1  0
  9 10  1  0
  5  1  1  0
 10 11  1  0
  1  2  1  0
 10 12  2  0
  3  6  1  0
 11 13  1  0
 13 14  2  0
  6  7  1  0
 14 15  1  0
  2  3  1  0
 15 16  2  0
  7  8  1  0
 16 17  1  0
  3  4  1  0
 17 18  2  0
 18 13  1  0
  8  9  1  0
 17 19  1  0
M  END

> <chembl_id>
CHEMBL1096094

> <chembl_pref_name>
None

$$$$

     RDKit          2D

 21 23  0  0  0  0  0  0  0  0999 V2000
    8.9174   -5.0358    0.0000 C   0  0  0  0  0  0  0  0  0  0  0  0
    8.9163   -5.8622    0.0000 C   0  0  0  0  0  0  0  0  0  0  0  0
    9.6303   -6.2747    0.0000 C   0  0  0  0  0  0  0  0  0  0  0  0
   10.3459   -5.8617    0.0000 C   0  0  0  0  0  0  0  0  0  0  0  0
   10.3431   -5.0322    0.0000 C   0  0  0  0  0  0  0  0  0  0  0  0
    9.6285   -4.6236    0.0000 C   0  0  0  0  0  0  0  0  0  0  0  0
   11.0602   -6.2727    0.0000 O   0  0  0  0  0  0  0  0  0  0  0  0
   11.0551   -4.6175    0.0000 C   0  0  0  0  0  0  0  0  0  0  0  0
   11.7707   -5.0267    0.0000 C   0  0  0  0  0  0  0  0  0  0  0  0
   11.0520   -3.7934    0.0000 O   0  0  0  0  0  0  0  0  0  0  0  0
    9.6260   -3.7995    0.0000 C   0  0  0  0  0  0  0  0  0  0  0  0
   11.8000   -5.8519    0.0000 C   0  0  0  0  0  0  0  0  0  0  0  0
   13.5913   -5.3697    0.0000 C   0  0  0  0  0  0  0  0  0  0  0  0
   12.4651   -6.3407    0.0000 C   0  0  0  0  0  0  0  0  0  0  0  0
   13.2610   -6.1234    0.0000 C   0  0  0  0  0  0  0  0  0  0  0  0
   12.3901   -4.4903    0.0000 C   0  0  0  0  0  0  0  0  0  0  0  0
   13.2027   -4.6444    0.0000 N   0  0  0  0  0  0  0  0  0  0  0  0
   13.6005   -3.9193    0.0000 C   0  0  0  0  0  0  0  0  0  0  0  0
   13.0337   -3.3169    0.0000 C   0  0  0  0  0  0  0  0  0  0  0  0
   12.2857   -3.6699    0.0000 C   0  0  0  0  0  0  0  0  0  0  0  0
   11.5908   -4.2701    0.0000 H   0  0  0  0  0  0  0  0  0  0  0  0
  2  3  1  0
  6 11  1  0
  9 16  1  0
  5  6  2  0
  9 12  2  0
  6  1  1  0
 17 13  1  0
  1  2  2  0
 12 14  1  0
  4  7  1  0
 13 15  1  0
 14 15  1  0
 16 17  1  0
  3  4  2  0
  5  8  1  0
  8  9  1  0
  4  5  1  0
 17 18  1  0
 18 19  1  0
 19 20  1  0
 20 16  1  0
  8 10  2  0
 16 21  1  1
M  END

> <chembl_id>
CHEMBL1080674

> <chembl_pref_name>
None

$$$$

     RDKit          2D

 17 18  0  0  0  0  0  0  0  0999 V2000
   -0.5859   -2.0081    0.0000 S   0  0  0  0  0  0  0  0  0  0  0  0
   -0.0590   -0.6356    0.0000 S   0  0  0  0  0  0  0  0  0  0  0  0
   -2.9421   -0.3647    0.0000 O   0  0  0  0  0  0  0  0  0  0  0  0
   -1.5111   -3.1506    0.0000 O   0  0  0  0  0  0  0  0  0  0  0  0
   -1.4791   -1.0161    0.0000 N   0  0  0  0  0  0  0  0  0  0  0  0
   -1.8916   -1.7306    0.0000 C   0  0  0  0  0  0  0  0  0  0  0  0
   -1.3396   -2.3437    0.0000 C   0  0  0  0  0  0  0  0  0  0  0  0
   -0.6721   -1.1876    0.0000 C   0  0  0  0  0  0  0  0  0  0  0  0
   -2.7121   -1.8168    0.0000 C   0  0  0  0  0  0  0  0  0  0  0  0
   -3.1970   -1.1494    0.0000 C   0  0  0  0  0  0  0  0  0  0  0  0
   -4.0220   -1.1494    0.0000 C   0  0  0  0  0  0  0  0  0  0  0  0
   -3.6095    0.1202    0.0000 C   0  0  0  0  0  0  0  0  0  0  0  0
   -4.2769   -0.3647    0.0000 C   0  0  0  0  0  0  0  0  0  0  0  0
   -0.2306    0.1714    0.0000 C   0  0  0  0  0  0  0  0  0  0  0  0
   -3.6095    0.9452    0.0000 C   0  0  0  0  0  0  0  0  0  0  0  0
    0.3825    0.7234    0.0000 C   0  0  0  0  0  0  0  0  0  0  0  0
    0.2110    1.5304    0.0000 C   0  0  0  0  0  0  0  0  0  0  0  0
  1  7  1  0
  1  8  1  0
  2  8  1  0
  2 14  1  0
  3 10  1  0
  3 12  1  0
  4  7  2  0
  5  6  1  0
  5  8  2  0
  6  7  1  0
  6  9  2  0
  9 10  1  0
 10 11  2  0
 11 13  1  0
 12 13  2  0
 12 15  1  0
 14 16  1  0
 16 17  2  0
M  END

> <chembl_id>
CHEMBL1340697

> <chembl_pref_name>
None

$$$$

     RDKit          2D

 29 31  0  0  0  0  0  0  0  0999 V2000
    5.6956   -0.0460    0.0000 S   0  0  0  0  0  0  0  0  0  0  0  0
   -1.3259   -0.3236    0.0000 O   0  0  0  0  0  0  0  0  0  0  0  0
    1.5320   -0.3236    0.0000 O   0  0  0  0  0  0  0  0  0  0  0  0
   -2.7549   -0.3236    0.0000 O   0  0  0  0  0  0  0  0  0  0  0  0
    6.2476   -0.6591    0.0000 O   0  0  0  0  0  0  0  0  0  0  0  0
    6.3630    0.4389    0.0000 O   0  0  0  0  0  0  0  0  0  0  0  0
   -3.4693   -3.2111    0.0000 O   0  0  0  0  0  0  0  0  0  0  0  0
   -2.0404   -3.2111    0.0000 O   0  0  0  0  0  0  0  0  0  0  0  0
    2.9609    0.5014    0.0000 O   0  0  0  0  0  0  0  0  0  0  0  0
    3.6754   -0.7361    0.0000 N   0  0  0  0  0  0  0  0  0  0  0  0
   -0.6114   -1.5611    0.0000 C   0  0  0  0  0  0  0  0  0  0  0  0
   -0.6114   -0.7361    0.0000 C   0  0  0  0  0  0  0  0  0  0  0  0
   -1.3259   -1.9736    0.0000 C   0  0  0  0  0  0  0  0  0  0  0  0
   -2.0404   -1.5611    0.0000 C   0  0  0  0  0  0  0  0  0  0  0  0
   -2.0404   -0.7361    0.0000 C   0  0  0  0  0  0  0  0  0  0  0  0
    0.1030   -0.3236    0.0000 C   0  0  0  0  0  0  0  0  0  0  0  0
    0.1030   -1.9736    0.0000 C   0  0  0  0  0  0  0  0  0  0  0  0
    0.8175   -0.7361    0.0000 C   0  0  0  0  0  0  0  0  0  0  0  0
    0.8175   -1.5611    0.0000 C   0  0  0  0  0  0  0  0  0  0  0  0
   -2.7549   -1.9736    0.0000 C   0  0  0  0  0  0  0  0  0  0  0  0
    4.3899   -0.3236    0.0000 C   0  0  0  0  0  0  0  0  0  0  0  0
    5.1435   -0.6591    0.0000 C   0  0  0  0  0  0  0  0  0  0  0  0
   -1.3259   -2.7986    0.0000 C   0  0  0  0  0  0  0  0  0  0  0  0
    5.2831    0.6684    0.0000 C   0  0  0  0  0  0  0  0  0  0  0  0
    4.4761    0.4969    0.0000 C   0  0  0  0  0  0  0  0  0  0  0  0
   -2.7549   -2.7986    0.0000 C   0  0  0  0  0  0  0  0  0  0  0  0
    2.9609   -0.3236    0.0000 C   0  0  0  0  0  0  0  0  0  0  0  0
    2.2464   -0.7361    0.0000 C   0  0  0  0  0  0  0  0  0  0  0  0
   -3.4693   -4.0361    0.0000 C   0  0  0  0  0  0  0  0  0  0  0  0
  1  5  2  0
  1  6  2  0
  1 22  1  0
  1 24  1  0
  2 12  1  0
  2 15  1  0
  3 18  1  0
  3 28  1  0
  4 15  2  0
  7 26  1  0
  7 29  1  0
  8 26  2  0
  9 27  2  0
 10 21  1  0
 10 27  1  0
 11 12  1  0
 11 13  1  0
 11 17  2  0
 12 16  2  0
 13 14  2  0
 13 23  1  0
 14 15  1  0
 14 20  1  0
 16 18  1  0
 17 19  1  0
 18 19  2  0
 20 26  1  0
 21 22  1  0
 21 25  1  0
 24 25  1  0
 27 28  1  0
M  END

> <chembl_id>
CHEMBL1540494

> <chembl_pref_name>
None

$$$$

     RDKit          2D

 22 22  0  0  0  0  0  0  0  0999 V2000
    0.6984   -0.9107    0.0000 S   0  0  0  0  0  0  0  0  0  0  0  0
    1.4129   -2.9732    0.0000 O   0  0  0  0  0  0  0  0  0  0  0  0
   -0.0161   -2.9732    0.0000 O   0  0  0  0  0  0  0  0  0  0  0  0
   -0.0161    0.3268    0.0000 N   0  0  0  0  0  0  0  0  0  0  0  0
   -0.7305   -0.9107    0.0000 N   0  0  0  0  0  0  0  0  0  0  0  0
   -1.4450    0.3268    0.0000 N   0  0  0  0  0  0  0  0  0  0  0  0
   -0.7305    1.5643    0.0000 N   0  0  0  0  0  0  0  0  0  0  0  0
   -2.1595   -0.9107    0.0000 N   0  0  0  0  0  0  0  0  0  0  0  0
   -0.0161   -0.4982    0.0000 C   0  0  0  0  0  0  0  0  0  0  0  0
   -0.7305    0.7393    0.0000 C   0  0  0  0  0  0  0  0  0  0  0  0
   -1.4450   -0.4982    0.0000 C   0  0  0  0  0  0  0  0  0  0  0  0
    0.6984   -1.7357    0.0000 C   0  0  0  0  0  0  0  0  0  0  0  0
   -1.4450    1.9768    0.0000 C   0  0  0  0  0  0  0  0  0  0  0  0
    1.4129   -2.1482    0.0000 C   0  0  0  0  0  0  0  0  0  0  0  0
   -0.0161   -2.1482    0.0000 C   0  0  0  0  0  0  0  0  0  0  0  0
   -2.1595    2.3893    0.0000 C   0  0  0  0  0  0  0  0  0  0  0  0
   -1.0325    2.6913    0.0000 C   0  0  0  0  0  0  0  0  0  0  0  0
   -1.8575    1.2623    0.0000 C   0  0  0  0  0  0  0  0  0  0  0  0
   -2.1595   -1.7357    0.0000 C   0  0  0  0  0  0  0  0  0  0  0  0
    2.1273   -1.7357    0.0000 C   0  0  0  0  0  0  0  0  0  0  0  0
   -0.7305   -1.7357    0.0000 C   0  0  0  0  0  0  0  0  0  0  0  0
   -2.8740   -2.1482    0.0000 C   0  0  0  0  0  0  0  0  0  0  0  0
  1  9  1  0
  1 12  1  0
  2 14  2  0
  3 15  2  0
  4  9  1  0
  4 10  2  0
  5  9  2  0
  5 11  1  0
  6 10  1  0
  6 11  2  0
  7 10  1  0
  7 13  1  0
  8 11  1  0
  8 19  1  0
 12 14  1  0
 12 15  1  0
 13 16  1  0
 13 17  1  0
 13 18  1  0
 14 20  1  0
 15 21  1  0
 19 22  1  0
M  END

> <chembl_id>
CHEMBL1440664

> <chembl_pref_name>
None

$$$$

     RDKit          2D

 18 19  0  0  0  0  0  0  0  0999 V2000
    3.5492    1.9407    0.0000 S   0  0  0  0  0  0  0  0  0  0  0  0
    2.5295   -2.5327    0.0000 O   0  0  0  0  0  0  0  0  0  0  0  0
    4.3338    0.8607    0.0000 N   0  0  0  0  0  0  0  0  0  0  0  0
    5.1185    1.9407    0.0000 N   0  0  0  0  0  0  0  0  0  0  0  0
    3.5492    0.6058    0.0000 C   0  0  0  0  0  0  0  0  0  0  0  0
    4.3338    1.6857    0.0000 C   0  0  0  0  0  0  0  0  0  0  0  0
    3.0643    1.2732    0.0000 C   0  0  0  0  0  0  0  0  0  0  0  0
    3.2943   -0.1788    0.0000 C   0  0  0  0  0  0  0  0  0  0  0  0
    5.1185    0.6058    0.0000 C   0  0  0  0  0  0  0  0  0  0  0  0
    5.6034    1.2732    0.0000 C   0  0  0  0  0  0  0  0  0  0  0  0
    3.8463   -0.7919    0.0000 C   0  0  0  0  0  0  0  0  0  0  0  0
    2.4873   -0.3504    0.0000 C   0  0  0  0  0  0  0  0  0  0  0  0
    2.2393    1.2732    0.0000 C   0  0  0  0  0  0  0  0  0  0  0  0
    2.7844   -1.7481    0.0000 C   0  0  0  0  0  0  0  0  0  0  0  0
    3.5914   -1.5765    0.0000 C   0  0  0  0  0  0  0  0  0  0  0  0
    2.2324   -1.1350    0.0000 C   0  0  0  0  0  0  0  0  0  0  0  0
    3.0815   -3.1458    0.0000 C   0  0  0  0  0  0  0  0  0  0  0  0
    0.0000    0.0000    0.0000 Br  0  0  0  0  0  0  0  0  0  0  0  0
  1  6  1  0
  1  7  1  0
  2 14  1  0
  2 17  1  0
  3  5  1  0
  3  6  1  0
  3  9  1  0
  4  6  2  0
  4 10  1  0
  5  7  2  0
  5  8  1  0
  7 13  1  0
  8 11  2  0
  8 12  1  0
  9 10  1  0
 11 15  1  0
 12 16  2  0
 14 15  2  0
 14 16  1  0
M  END

> <chembl_id>
CHEMBL1707133

> <chembl_pref_name>
None

$$$$

     RDKit          2D

 33 36  0  0  0  0  0  0  0  0999 V2000
   -0.1391   -6.0753    0.0000 S   0  0  0  0  0  0  0  0  0  0  0  0
    0.6146   -5.7398    0.0000 O   0  0  0  0  0  0  0  0  0  0  0  0
   -0.8928   -6.4109    0.0000 O   0  0  0  0  0  0  0  0  0  0  0  0
    0.0835   -1.6086    0.0000 O   0  0  0  0  0  0  0  0  0  0  0  0
   -0.5839    1.3513    0.0000 O   0  0  0  0  0  0  0  0  0  0  0  0
   -0.4747   -5.3217    0.0000 N   0  0  0  0  0  0  0  0  0  0  0  0
   -1.1458   -3.8143    0.0000 N   0  0  0  0  0  0  0  0  0  0  0  0
   -1.2514   -1.6086    0.0000 N   0  0  0  0  0  0  0  0  0  0  0  0
   -0.1714   -2.3932    0.0000 N   0  0  0  0  0  0  0  0  0  0  0  0
    0.8450    1.3513    0.0000 N   0  0  0  0  0  0  0  0  0  0  0  0
    0.1964   -6.8290    0.0000 C   0  0  0  0  0  0  0  0  0  0  0  0
    1.0169   -6.9152    0.0000 C   0  0  0  0  0  0  0  0  0  0  0  0
   -0.2885   -7.4965    0.0000 C   0  0  0  0  0  0  0  0  0  0  0  0
   -1.2951   -5.2354    0.0000 C   0  0  0  0  0  0  0  0  0  0  0  0
    0.0103   -4.6542    0.0000 C   0  0  0  0  0  0  0  0  0  0  0  0
    1.3525   -7.6689    0.0000 C   0  0  0  0  0  0  0  0  0  0  0  0
   -1.6307   -4.4818    0.0000 C   0  0  0  0  0  0  0  0  0  0  0  0
   -0.3253   -3.9005    0.0000 C   0  0  0  0  0  0  0  0  0  0  0  0
    0.8676   -8.3364    0.0000 C   0  0  0  0  0  0  0  0  0  0  0  0
    0.0471   -8.2501    0.0000 C   0  0  0  0  0  0  0  0  0  0  0  0
   -0.9964   -2.3932    0.0000 C   0  0  0  0  0  0  0  0  0  0  0  0
   -1.4813   -3.0606    0.0000 C   0  0  0  0  0  0  0  0  0  0  0  0
   -0.5839   -1.1237    0.0000 C   0  0  0  0  0  0  0  0  0  0  0  0
    1.5018   -6.2478    0.0000 C   0  0  0  0  0  0  0  0  0  0  0  0
   -0.5839   -0.2987    0.0000 C   0  0  0  0  0  0  0  0  0  0  0  0
    1.2031   -9.0900    0.0000 C   0  0  0  0  0  0  0  0  0  0  0  0
    0.1306    0.9388    0.0000 C   0  0  0  0  0  0  0  0  0  0  0  0
    0.1306    0.1138    0.0000 C   0  0  0  0  0  0  0  0  0  0  0  0
    0.8450    2.1763    0.0000 C   0  0  0  0  0  0  0  0  0  0  0  0
    1.5595    0.9388    0.0000 C   0  0  0  0  0  0  0  0  0  0  0  0
    1.5595    2.5888    0.0000 C   0  0  0  0  0  0  0  0  0  0  0  0
    2.2740    1.3513    0.0000 C   0  0  0  0  0  0  0  0  0  0  0  0
    2.2740    2.1763    0.0000 C   0  0  0  0  0  0  0  0  0  0  0  0
  1  2  2  0
  1  3  2  0
  1  6  1  0
  1 11  1  0
  4  9  1  0
  4 23  1  0
  5 27  2  0
  6 14  1  0
  6 15  1  0
  7 17  1  0
  7 18  1  0
  7 22  1  0
  8 21  1  0
  8 23  2  0
  9 21  2  0
 10 27  1  0
 10 29  1  0
 10 30  1  0
 11 12  2  0
 11 13  1  0
 12 16  1  0
 12 24  1  0
 13 20  2  0
 14 17  1  0
 15 18  1  0
 16 19  2  0
 19 20  1  0
 19 26  1  0
 21 22  1  0
 23 25  1  0
 25 28  1  0
 27 28  1  0
 29 31  1  0
 30 32  1  0
 31 33  1  0
 32 33  1  0
M  END

> <chembl_id>
CHEMBL1404064

> <chembl_pref_name>
None

$$$$

     RDKit          2D

 34 39  0  0  0  0  0  0  0  0999 V2000
    0.7788  -12.2917    0.0000 C   0  0  0  0  0  0  0  0  0  0  0  0
    2.4217  -12.2980    0.0000 C   0  0  0  0  0  0  0  0  0  0  0  0
    2.0065  -11.5822    0.0000 C   0  0  0  0  0  0  0  0  0  0  0  0
    1.1868  -11.5830    0.0000 C   0  0  0  0  0  0  0  0  0  0  0  0
    2.0059  -13.0096    0.0000 C   0  0  0  0  0  0  0  0  0  0  0  0
    1.1837  -13.0059    0.0000 C   0  0  0  0  0  0  0  0  0  0  0  0
    0.7734  -13.7156    0.0000 C   0  0  0  0  0  0  0  0  0  0  0  0
    1.1798  -14.4292    0.0000 N   0  0  0  0  0  0  0  0  0  0  0  0
    2.0051  -14.4289    0.0000 N   0  0  0  0  0  0  0  0  0  0  0  0
    2.4159  -13.7188    0.0000 C   0  0  0  0  0  0  0  0  0  0  0  0
    3.2446  -13.7223    0.0000 N   0  0  0  0  0  0  0  0  0  0  0  0
    3.6555  -14.4421    0.0000 C   0  0  0  0  0  0  0  0  0  0  0  0
    4.4804  -14.4442    0.0000 C   0  0  0  0  0  0  0  0  0  0  0  0
    4.9007  -13.7281    0.0000 N   0  0  0  0  0  0  0  0  0  0  0  0
    4.4856  -13.0081    0.0000 C   0  0  0  0  0  0  0  0  0  0  0  0
    3.6545  -13.0044    0.0000 C   0  0  0  0  0  0  0  0  0  0  0  0
    5.7290  -13.7313    0.0000 C   0  0  0  0  0  0  0  0  0  0  0  0
    6.1385  -14.4509    0.0000 C   0  0  0  0  0  0  0  0  0  0  0  0
    6.1440  -13.0148    0.0000 O   0  0  0  0  0  0  0  0  0  0  0  0
    5.7192  -15.1652    0.0000 C   0  0  0  0  0  0  0  0  0  0  0  0
    6.1279  -15.8844    0.0000 C   0  0  0  0  0  0  0  0  0  0  0  0
    6.9571  -15.8881    0.0000 C   0  0  0  0  0  0  0  0  0  0  0  0
    7.3761  -15.1666    0.0000 C   0  0  0  0  0  0  0  0  0  0  0  0
    6.9608  -14.4504    0.0000 C   0  0  0  0  0  0  0  0  0  0  0  0
    3.2415  -15.1591    0.0000 C   0  0  0  0  0  0  0  0  0  0  0  0
   -0.0561  -13.7179    0.0000 N   0  0  0  0  0  0  0  0  0  0  0  0
   -0.5471  -14.3872    0.0000 C   0  0  0  0  0  0  0  0  0  0  0  0
   -1.3343  -14.1259    0.0000 C   0  0  0  0  0  0  0  0  0  0  0  0
   -1.3283  -13.2995    0.0000 C   0  0  0  0  0  0  0  0  0  0  0  0
   -0.5461  -13.0476    0.0000 C   0  0  0  0  0  0  0  0  0  0  0  0
   -0.3764  -12.2451    0.0000 C   0  0  0  0  0  0  0  0  0  0  0  0
   -0.9842  -11.6980    0.0000 C   0  0  0  0  0  0  0  0  0  0  0  0
   -1.7683  -11.9546    0.0000 C   0  0  0  0  0  0  0  0  0  0  0  0
   -1.9384  -12.7565    0.0000 C   0  0  0  0  0  0  0  0  0  0  0  0
 10 11  1  0
  7  8  2  0
 14 17  1  0
  3  4  2  0
 17 18  1  0
  8  9  1  0
 17 19  2  0
  4  1  1  0
 18 20  2  0
  9 10  2  0
 20 21  1  0
 10  5  1  0
 21 22  2  0
 11 12  1  0
 22 23  1  0
  5  2  2  0
 23 24  2  0
 24 18  1  0
  1  6  2  0
 12 25  1  1
 26 30  1  0
  5  6  1  0
  2  3  1  0
 28 27  2  0
 27 26  1  0
  7 26  1  0
  6  7  1  0
 28 29  1  0
 11 16  1  0
 29 30  2  0
 12 13  1  0
 30 31  1  0
 13 14  1  0
 31 32  2  0
 14 15  1  0
 32 33  1  0
 15 16  1  0
 33 34  2  0
 34 29  1  0
M  END

> <chembl_id>
CHEMBL1209314

> <chembl_pref_name>
None

$$$$

     RDKit          2D

 24 25  0  0  0  0  0  0  0  0999 V2000
   -4.3185    1.5930    0.0000 S   0  0  0  0  0  0  0  0  0  0  0  0
   -5.7475    1.5930    0.0000 O   0  0  0  0  0  0  0  0  0  0  0  0
    1.3973   -0.8820    0.0000 O   0  0  0  0  0  0  0  0  0  0  0  0
   -2.1751   -0.4695    0.0000 O   0  0  0  0  0  0  0  0  0  0  0  0
   -5.0330    0.3555    0.0000 N   0  0  0  0  0  0  0  0  0  0  0  0
   -3.6040    0.3555    0.0000 N   0  0  0  0  0  0  0  0  0  0  0  0
   -2.8896    0.7680    0.0000 N   0  0  0  0  0  0  0  0  0  0  0  0
   -7.8909    0.3555    0.0000 N   0  0  0  0  0  0  0  0  0  0  0  0
   -6.4619    0.3555    0.0000 C   0  0  0  0  0  0  0  0  0  0  0  0
   -5.7475    0.7680    0.0000 C   0  0  0  0  0  0  0  0  0  0  0  0
   -0.7462    0.3555    0.0000 C   0  0  0  0  0  0  0  0  0  0  0  0
   -4.3185    0.7680    0.0000 C   0  0  0  0  0  0  0  0  0  0  0  0
   -2.1751    0.3555    0.0000 C   0  0  0  0  0  0  0  0  0  0  0  0
   -1.4606    0.7680    0.0000 C   0  0  0  0  0  0  0  0  0  0  0  0
   -7.1764    0.7680    0.0000 C   0  0  0  0  0  0  0  0  0  0  0  0
   -6.4619   -0.4695    0.0000 C   0  0  0  0  0  0  0  0  0  0  0  0
    0.6828   -0.4695    0.0000 C   0  0  0  0  0  0  0  0  0  0  0  0
   -0.0317    0.7680    0.0000 C   0  0  0  0  0  0  0  0  0  0  0  0
   -0.7462   -0.4695    0.0000 C   0  0  0  0  0  0  0  0  0  0  0  0
    0.6828    0.3555    0.0000 C   0  0  0  0  0  0  0  0  0  0  0  0
   -0.0317   -0.8820    0.0000 C   0  0  0  0  0  0  0  0  0  0  0  0
   -7.1764   -0.8820    0.0000 C   0  0  0  0  0  0  0  0  0  0  0  0
   -7.8909   -0.4695    0.0000 C   0  0  0  0  0  0  0  0  0  0  0  0
    2.1117   -0.4695    0.0000 C   0  0  0  0  0  0  0  0  0  0  0  0
  1 12  2  0
  2 10  2  0
  3 17  1  0
  3 24  1  0
  4 13  2  0
  5 10  1  0
  5 12  1  0
  6  7  1  0
  6 12  1  0
  7 13  1  0
  8 15  2  0
  8 23  1  0
  9 10  1  0
  9 15  1  0
  9 16  2  0
 11 14  1  0
 11 18  2  0
 11 19  1  0
 13 14  1  0
 16 22  1  0
 17 20  2  0
 17 21  1  0
 18 20  1  0
 19 21  2  0
 22 23  2  0
M  END

> <chembl_id>
CHEMBL1430694

> <chembl_pref_name>
None

$$$$

     RDKit          2D

 29 29  0  0  0  0  0  0  0  0999 V2000
    7.6855    0.7145    0.0000 O   0  0  0  0  0  0  0  0  0  0  0  0
    6.0355   -0.7145    0.0000 O   0  0  0  0  0  0  0  0  0  0  0  0
    7.6855   -0.7145    0.0000 O   0  0  0  0  0  0  0  0  0  0  0  0
    6.0355    0.7145    0.0000 O   0  0  0  0  0  0  0  0  0  0  0  0
    7.2730    0.0000    0.0000 C   0  0  0  0  0  0  0  0  0  0  0  0
    6.4480    0.0000    0.0000 C   0  0  0  0  0  0  0  0  0  0  0  0
   -1.8017    0.7533    0.0000 S   0  0  0  0  0  0  0  0  0  0  0  0
   -1.8017    1.5783    0.0000 O   0  0  0  0  0  0  0  0  0  0  0  0
   -2.6267    0.7533    0.0000 O   0  0  0  0  0  0  0  0  0  0  0  0
    3.1996   -0.4842    0.0000 O   0  0  0  0  0  0  0  0  0  0  0  0
   -0.3728   -0.0717    0.0000 N   0  0  0  0  0  0  0  0  0  0  0  0
    0.3417   -0.4842    0.0000 N   0  0  0  0  0  0  0  0  0  0  0  0
   -0.9767    0.7533    0.0000 N   0  0  0  0  0  0  0  0  0  0  0  0
    3.1996    1.1658    0.0000 N   0  0  0  0  0  0  0  0  0  0  0  0
   -1.8017   -0.0717    0.0000 C   0  0  0  0  0  0  0  0  0  0  0  0
   -1.0872   -0.4842    0.0000 C   0  0  0  0  0  0  0  0  0  0  0  0
   -2.5162   -0.4842    0.0000 C   0  0  0  0  0  0  0  0  0  0  0  0
    1.0562   -0.0717    0.0000 C   0  0  0  0  0  0  0  0  0  0  0  0
   -1.0872   -1.3092    0.0000 C   0  0  0  0  0  0  0  0  0  0  0  0
   -2.5162   -1.3092    0.0000 C   0  0  0  0  0  0  0  0  0  0  0  0
    1.0562    0.7533    0.0000 C   0  0  0  0  0  0  0  0  0  0  0  0
    2.4851   -0.0717    0.0000 C   0  0  0  0  0  0  0  0  0  0  0  0
    1.7706   -0.4842    0.0000 C   0  0  0  0  0  0  0  0  0  0  0  0
    2.4851    0.7533    0.0000 C   0  0  0  0  0  0  0  0  0  0  0  0
   -1.8017   -1.7217    0.0000 C   0  0  0  0  0  0  0  0  0  0  0  0
    1.7706    1.1658    0.0000 C   0  0  0  0  0  0  0  0  0  0  0  0
   -3.2307   -1.7217    0.0000 C   0  0  0  0  0  0  0  0  0  0  0  0
    0.3417    1.1658    0.0000 C   0  0  0  0  0  0  0  0  0  0  0  0
    3.9141   -0.0717    0.0000 C   0  0  0  0  0  0  0  0  0  0  0  0
  1  5  2  0
  2  6  2  0
  3  5  1  0
  4  6  1  0
  5  6  1  0
  7  8  2  0
  7  9  2  0
  7 13  1  0
  7 15  1  0
 10 22  1  0
 10 29  1  0
 11 12  2  3
 11 16  1  0
 12 18  1  0
 14 24  1  0
 15 16  1  0
 15 17  2  0
 16 19  2  0
 17 20  1  0
 18 21  2  0
 18 23  1  0
 19 25  1  0
 20 25  2  0
 20 27  1  0
 21 26  1  0
 21 28  1  0
 22 23  2  0
 22 24  1  0
 24 26  2  0
M  END

> <chembl_id>
CHEMBL1706558

> <chembl_pref_name>
None

$$$$

     RDKit          2D

 19 22  0  0  0  0  0  0  0  0999 V2000
    0.4663  -10.2667    0.0000 S   0  0  0  0  0  0  0  0  0  0  0  0
   -0.0127  -10.9457    0.0000 C   0  0  0  0  0  0  0  0  0  0  0  0
    0.4860  -11.6080    0.0000 N   0  0  0  0  0  0  0  0  0  0  0  0
    2.0632  -11.5736    0.0000 C   0  0  0  0  0  0  0  0  0  0  0  0
    2.5343  -10.8974    0.0000 C   0  0  0  0  0  0  0  0  0  0  0  0
    2.0365  -10.2398    0.0000 N   0  0  0  0  0  0  0  0  0  0  0  0
    1.2573  -10.5099    0.0000 C   0  0  0  0  0  0  0  0  0  0  0  0
    1.2734  -11.3345    0.0000 N   0  0  0  0  0  0  0  0  0  0  0  0
    2.4269  -12.3125    0.0000 C   0  0  0  0  0  0  0  0  0  0  0  0
    2.0193  -13.0311    0.0000 C   0  0  0  0  0  0  0  0  0  0  0  0
    2.4376  -13.7412    0.0000 C   0  0  0  0  0  0  0  0  0  0  0  0
    3.2635  -13.7341    0.0000 N   0  0  0  0  0  0  0  0  0  0  0  0
    3.6692  -13.0108    0.0000 C   0  0  0  0  0  0  0  0  0  0  0  0
    3.2485  -12.3036    0.0000 C   0  0  0  0  0  0  0  0  0  0  0  0
   -0.8376  -10.9584    0.0000 N   0  0  0  0  0  0  0  0  0  0  0  0
   -1.2611  -10.2504    0.0000 C   0  0  0  0  0  0  0  0  0  0  0  0
   -2.0860  -10.2632    0.0000 C   0  0  0  0  0  0  0  0  0  0  0  0
   -2.8097   -9.8611    0.0000 C   0  0  0  0  0  0  0  0  0  0  0  0
   -2.7969  -10.6860    0.0000 C   0  0  0  0  0  0  0  0  0  0  0  0
  2  3  2  0
  9 10  2  0
 10 11  1  0
  5  6  1  0
 11 12  2  0
  1  2  1  0
 12 13  1  0
  3  8  1  0
 13 14  2  0
 14  9  1  0
  4  9  1  0
  7  1  1  0
  2 15  1  0
  4  5  2  0
 15 16  1  0
  6  7  2  0
 16 17  1  0
 18 17  1  0
 19 18  1  0
 17 19  1  0
  8  4  1  0
  7  8  1  0
M  END

> <chembl_id>
CHEMBL1240674

> <chembl_pref_name>
None

$$$$

     RDKit          2D

 33 36  0  0  0  0  0  0  0  0999 V2000
    8.7996    1.3024    0.0000 O   0  0  0  0  0  0  0  0  0  0  0  0
    2.9538   -1.2619    0.0000 O   0  0  0  0  0  0  0  0  0  0  0  0
    2.9538    0.3881    0.0000 O   0  0  0  0  0  0  0  0  0  0  0  0
    5.8116   -2.0869    0.0000 O   0  0  0  0  0  0  0  0  0  0  0  0
    7.9551   -0.8494    0.0000 N   0  0  0  0  0  0  0  0  0  0  0  0
    8.4982    0.5345    0.0000 C   0  0  0  0  0  0  0  0  0  0  0  0
    9.3140    0.4115    0.0000 C   0  0  0  0  0  0  0  0  0  0  0  0
    7.8165    0.9992    0.0000 C   0  0  0  0  0  0  0  0  0  0  0  0
    9.7265   -0.3030    0.0000 C   0  0  0  0  0  0  0  0  0  0  0  0
    7.8934   -0.0267    0.0000 C   0  0  0  0  0  0  0  0  0  0  0  0
    9.7265    1.1260    0.0000 C   0  0  0  0  0  0  0  0  0  0  0  0
    9.4250   -1.0709    0.0000 C   0  0  0  0  0  0  0  0  0  0  0  0
    8.6367   -1.3141    0.0000 C   0  0  0  0  0  0  0  0  0  0  0  0
    7.0732    0.6413    0.0000 C   0  0  0  0  0  0  0  0  0  0  0  0
    7.8782    1.8219    0.0000 C   0  0  0  0  0  0  0  0  0  0  0  0
   10.5515   -0.3030    0.0000 C   0  0  0  0  0  0  0  0  0  0  0  0
    7.2406   -1.2619    0.0000 C   0  0  0  0  0  0  0  0  0  0  0  0
    5.0972   -0.8494    0.0000 C   0  0  0  0  0  0  0  0  0  0  0  0
    3.6682   -0.8494    0.0000 C   0  0  0  0  0  0  0  0  0  0  0  0
   10.5515    1.1260    0.0000 C   0  0  0  0  0  0  0  0  0  0  0  0
    3.6682   -0.0244    0.0000 C   0  0  0  0  0  0  0  0  0  0  0  0
    5.8116   -1.2619    0.0000 C   0  0  0  0  0  0  0  0  0  0  0  0
   10.9640    0.4115    0.0000 C   0  0  0  0  0  0  0  0  0  0  0  0
    4.3827   -1.2619    0.0000 C   0  0  0  0  0  0  0  0  0  0  0  0
    6.5261   -0.8494    0.0000 C   0  0  0  0  0  0  0  0  0  0  0  0
    6.3916    1.1060    0.0000 C   0  0  0  0  0  0  0  0  0  0  0  0
    7.1965    2.2866    0.0000 C   0  0  0  0  0  0  0  0  0  0  0  0
    5.0972   -0.0244    0.0000 C   0  0  0  0  0  0  0  0  0  0  0  0
    4.3827    0.3881    0.0000 C   0  0  0  0  0  0  0  0  0  0  0  0
    6.4532    1.9287    0.0000 C   0  0  0  0  0  0  0  0  0  0  0  0
    2.2393   -0.8494    0.0000 C   0  0  0  0  0  0  0  0  0  0  0  0
    2.2393   -0.0244    0.0000 C   0  0  0  0  0  0  0  0  0  0  0  0
    0.0000    0.0000    0.0000 Cl  0  0  0  0  0  0  0  0  0  0  0  0
  1  6  1  0
  2 19  1  0
  2 31  1  0
  3 21  1  0
  3 32  1  0
  4 22  2  0
  5 10  1  0
  5 13  1  0
  5 17  1  0
  6  7  1  0
  6  8  1  0
  6 10  1  0
  7  9  1  0
  7 11  2  0
  8 14  2  0
  8 15  1  0
  9 12  1  0
  9 16  2  0
 11 20  1  0
 12 13  1  0
 14 26  1  0
 15 27  2  0
 16 23  1  0
 17 25  1  0
 18 22  1  0
 18 24  1  0
 18 28  2  0
 19 21  1  0
 19 24  2  0
 20 23  2  0
 21 29  2  0
 22 25  1  0
 26 30  2  0
 27 30  1  0
 28 29  1  0
 31 32  1  0
M  END

> <chembl_id>
CHEMBL1708171

> <chembl_pref_name>
None

$$$$

     RDKit          2D

 20 20  0  0  0  0  0  0  0  0999 V2000
    8.2313  -12.3699    0.0000 C   0  0  0  0  0  0  0  0  0  0  0  0
    6.8004  -12.3628    0.0000 C   0  0  0  0  0  0  0  0  0  0  0  0
    6.7972  -13.1900    0.0000 C   0  0  0  0  0  0  0  0  0  0  0  0
    7.5165  -13.6053    0.0000 C   0  0  0  0  0  0  0  0  0  0  0  0
    8.2299  -13.1928    0.0000 C   0  0  0  0  0  0  0  0  0  0  0  0
    8.9442  -13.6057    0.0000 S   0  0  0  0  0  0  0  0  0  0  0  0
    8.9438  -14.4307    0.0000 N   0  0  0  0  0  0  0  0  0  0  0  0
    9.7784  -13.6048    0.0000 O   0  0  0  0  0  0  0  0  0  0  0  0
    9.1682  -12.8061    0.0000 O   0  0  0  0  0  0  0  0  0  0  0  0
    6.0954  -11.9485    0.0000 N   0  0  0  0  0  0  0  0  0  0  0  0
    5.3808  -12.3609    0.0000 C   0  0  0  0  0  0  0  0  0  0  0  0
    5.3806  -13.1859    0.0000 O   0  0  0  0  0  0  0  0  0  0  0  0
    4.6664  -11.9482    0.0000 C   0  0  0  0  0  0  0  0  0  0  0  0
    4.6666  -11.1232    0.0000 C   0  0  0  0  0  0  0  0  0  0  0  0
    3.9518  -12.3605    0.0000 C   0  0  0  0  0  0  0  0  0  0  0  0
    7.5164  -11.9530    0.0000 C   0  0  0  0  0  0  0  0  0  0  0  0
    3.9522  -10.7105    0.0000 C   0  0  0  0  0  0  0  0  0  0  0  0
    3.9524   -9.8855    0.0000 C   0  0  0  0  0  0  0  0  0  0  0  0
    3.2375  -11.9478    0.0000 C   0  0  0  0  0  0  0  0  0  0  0  0
    3.9516  -13.1855    0.0000 C   0  0  0  0  0  0  0  0  0  0  0  0
 16  2  1  0
  2 10  1  0
  4  5  2  0
 10 11  1  0
  5  1  1  0
 11 12  2  0
  1 16  2  0
 11 13  1  0
  5  6  1  0
 13 14  1  0
  2  3  2  0
 13 15  1  0
  6  7  1  0
 14 17  1  0
  6  8  2  0
 17 18  1  0
  3  4  1  0
 15 19  1  0
  6  9  2  0
 15 20  1  0
M  END

> <chembl_id>
CHEMBL1084064

> <chembl_pref_name>
None

$$$$

     RDKit          2D

 18 20  0  0  0  0  0  0  0  0999 V2000
   -4.3968   -8.0400    0.0000 C   0  0  0  0  0  0  0  0  0  0  0  0
   -4.8221   -8.7501    0.0000 C   0  0  0  0  0  0  0  0  0  0  0  0
   -4.4215   -9.4701    0.0000 C   0  0  0  0  0  0  0  0  0  0  0  0
   -3.5919   -9.4837    0.0000 C   0  0  0  0  0  0  0  0  0  0  0  0
   -3.1686   -8.7684    0.0000 C   0  0  0  0  0  0  0  0  0  0  0  0
   -3.5758   -8.0492    0.0000 C   0  0  0  0  0  0  0  0  0  0  0  0
   -2.3437   -8.7763    0.0000 C   0  0  0  0  0  0  0  0  0  0  0  0
   -1.8643   -9.4438    0.0000 N   0  0  0  0  0  0  0  0  0  0  0  0
   -1.0772   -9.1963    0.0000 N   0  0  0  0  0  0  0  0  0  0  0  0
   -1.0695   -8.3715    0.0000 C   0  0  0  0  0  0  0  0  0  0  0  0
   -1.8515   -8.1090    0.0000 O   0  0  0  0  0  0  0  0  0  0  0  0
   -0.3538   -7.9611    0.0000 C   0  0  0  0  0  0  0  0  0  0  0  0
    0.3550   -8.3779    0.0000 C   0  0  0  0  0  0  0  0  0  0  0  0
    1.0702   -7.9683    0.0000 C   0  0  0  0  0  0  0  0  0  0  0  0
    1.0732   -7.1423    0.0000 C   0  0  0  0  0  0  0  0  0  0  0  0
    0.3549   -6.7278    0.0000 C   0  0  0  0  0  0  0  0  0  0  0  0
   -0.3574   -7.1399    0.0000 C   0  0  0  0  0  0  0  0  0  0  0  0
   -5.6470   -8.7370    0.0000 O   0  0  0  0  0  0  0  0  0  0  0  0
  4  5  1  0
  2  3  1  0
  8  9  1  0
  9 10  2  0
 10 11  1  0
 11  7  1  0
  5  6  2  0
 10 12  1  0
  6  1  1  0
 12 13  2  0
  1  2  2  0
 13 14  1  0
  5  7  1  0
 14 15  2  0
  7  8  2  0
 15 16  1  0
  3  4  2  0
 16 17  2  0
 17 12  1  0
  2 18  1  0
M  END

> <chembl_id>
CHEMBL1095694

> <chembl_pref_name>
None

$$$$

     RDKit          2D

 96 97  0  0  0  0  0  0  0  0999 V2000
   10.4375  -14.0584    0.0000 N   0  0  0  0  0  0  0  0  0  0  0  0
    9.3375  -14.4167    0.0000 C   0  0  0  0  0  0  0  0  0  0  0  0
    4.0958  -11.2834    0.0000 C   0  0  0  0  0  0  0  0  0  0  0  0
    4.8083  -11.6959    0.0000 C   0  0  0  0  0  0  0  0  0  0  0  0
   13.3833  -10.0500    0.0000 N   0  0  0  0  0  0  0  0  0  0  0  0
   11.2375  -10.4625    0.0000 N   0  0  0  0  0  0  0  0  0  0  0  0
    3.3833  -11.6917    0.0000 N   0  0  0  0  0  0  0  0  0  0  0  0
   13.3833  -11.7042    0.0000 N   0  0  0  0  0  0  0  0  0  0  0  0
   10.9750  -13.4375    0.0000 C   0  0  0  0  0  0  0  0  0  0  0  0
   12.3166  -12.9584    0.0000 N   0  0  0  0  0  0  0  0  0  0  0  0
    9.0916  -10.0500    0.0000 N   0  0  0  0  0  0  0  0  0  0  0  0
   12.6666  -10.4625    0.0000 C   0  0  0  0  0  0  0  0  0  0  0  0
   14.1000  -11.2875    0.0000 C   0  0  0  0  0  0  0  0  0  0  0  0
   10.5250  -10.0500    0.0000 C   0  0  0  0  0  0  0  0  0  0  0  0
   13.1291  -13.1084    0.0000 C   0  0  0  0  0  0  0  0  0  0  0  0
    8.3750  -10.4625    0.0000 C   0  0  0  0  0  0  0  0  0  0  0  0
    2.6750  -11.2792    0.0000 C   0  0  0  0  0  0  0  0  0  0  0  0
    8.3750  -13.7625    0.0000 C   0  0  0  0  0  0  0  0  0  0  0  0
   11.9500  -10.0500    0.0000 C   0  0  0  0  0  0  0  0  0  0  0  0
   14.1000  -10.4625    0.0000 C   0  0  0  0  0  0  0  0  0  0  0  0
    6.9458  -11.2875    0.0000 C   0  0  0  0  0  0  0  0  0  0  0  0
    5.5208  -11.2834    0.0000 N   0  0  0  0  0  0  0  0  0  0  0  0
    7.6583  -11.7042    0.0000 N   0  0  0  0  0  0  0  0  0  0  0  0
   11.7800  -13.5863    0.0000 C   0  0  0  0  0  0  0  0  0  0  0  0
   13.6625  -12.4792    0.0000 C   0  0  0  0  0  0  0  0  0  0  0  0
    9.8083  -10.4625    0.0000 C   0  0  0  0  0  0  0  0  0  0  0  0
    8.3750  -11.2875    0.0000 C   0  0  0  0  0  0  0  0  0  0  0  0
    1.2500  -11.2750    0.0000 N   0  0  0  0  0  0  0  0  0  0  0  0
    6.2333  -11.6959    0.0000 C   0  0  0  0  0  0  0  0  0  0  0  0
    8.3750  -12.9375    0.0000 N   0  0  0  0  0  0  0  0  0  0  0  0
    1.9625  -11.6875    0.0000 C   0  0  0  0  0  0  0  0  0  0  0  0
    0.5375  -11.6875    0.0000 C   0  0  0  0  0  0  0  0  0  0  0  0
    4.8083  -12.5167    0.0000 O   0  0  0  0  0  0  0  0  0  0  0  0
   10.7000  -12.6625    0.0000 O   0  0  0  0  0  0  0  0  0  0  0  0
   12.6666  -11.2875    0.0000 O   0  0  0  0  0  0  0  0  0  0  0  0
   14.8125  -11.7042    0.0000 O   0  0  0  0  0  0  0  0  0  0  0  0
    7.6583  -10.0500    0.0000 O   0  0  0  0  0  0  0  0  0  0  0  0
   13.4041  -13.8875    0.0000 O   0  0  0  0  0  0  0  0  0  0  0  0
   10.5250   -9.2250    0.0000 O   0  0  0  0  0  0  0  0  0  0  0  0
   11.9500   -9.2250    0.0000 C   0  0  0  0  0  0  0  0  0  0  0  0
    2.6750  -10.4584    0.0000 O   0  0  0  0  0  0  0  0  0  0  0  0
    6.9458  -10.4667    0.0000 O   0  0  0  0  0  0  0  0  0  0  0  0
    7.6625  -14.1709    0.0000 O   0  0  0  0  0  0  0  0  0  0  0  0
   14.8125  -10.0500    0.0000 C   0  0  0  0  0  0  0  0  0  0  0  0
    9.3186  -15.3004    0.0000 C   0  0  0  0  0  0  0  0  0  0  0  0
    4.1000  -10.4584    0.0000 C   0  0  0  0  0  0  0  0  0  0  0  0
    0.5375  -12.5084    0.0000 O   0  0  0  0  0  0  0  0  0  0  0  0
    9.0916  -11.7042    0.0000 C   0  0  0  0  0  0  0  0  0  0  0  0
    9.0916  -12.5292    0.0000 C   0  0  0  0  0  0  0  0  0  0  0  0
   14.4920  -12.4875    0.0000 C   0  0  0  0  0  0  0  0  0  0  0  0
    9.8083  -11.2875    0.0000 C   0  0  0  0  0  0  0  0  0  0  0  0
   12.2160  -14.3067    0.0000 C   0  0  0  0  0  0  0  0  0  0  0  0
    6.2291  -12.5167    0.0000 C   0  0  0  0  0  0  0  0  0  0  0  0
    1.9625  -12.5125    0.0000 C   0  0  0  0  0  0  0  0  0  0  0  0
   12.6666   -8.8084    0.0000 C   0  0  0  0  0  0  0  0  0  0  0  0
   12.2638  -15.7200    0.0000 C   0  0  0  0  0  0  0  0  0  0  0  0
    2.6708  -13.7459    0.0000 C   0  0  0  0  0  0  0  0  0  0  0  0
   15.7178  -13.2194    0.0000 C   0  0  0  0  0  0  0  0  0  0  0  0
   11.2375  -11.2875    0.0000 C   0  0  0  0  0  0  0  0  0  0  0  0
    6.9416  -13.7542    0.0000 C   0  0  0  0  0  0  0  0  0  0  0  0
   10.0747  -15.5823    0.0000 O   0  0  0  0  0  0  0  0  0  0  0  0
    3.3875  -10.0500    0.0000 O   0  0  0  0  0  0  0  0  0  0  0  0
   15.5291  -10.4625    0.0000 C   0  0  0  0  0  0  0  0  0  0  0  0
   -0.1709  -11.2750    0.0000 C   0  0  0  0  0  0  0  0  0  0  0  0
   11.8283  -15.0207    0.0000 C   0  0  0  0  0  0  0  0  0  0  0  0
   14.8924  -13.2103    0.0000 C   0  0  0  0  0  0  0  0  0  0  0  0
   10.5250  -11.7042    0.0000 C   0  0  0  0  0  0  0  0  0  0  0  0
    6.9416  -12.9292    0.0000 C   0  0  0  0  0  0  0  0  0  0  0  0
    2.6708  -12.9209    0.0000 C   0  0  0  0  0  0  0  0  0  0  0  0
    8.6119  -15.6336    0.0000 C   0  0  0  0  0  0  0  0  0  0  0  0
    4.8125  -10.0500    0.0000 C   0  0  0  0  0  0  0  0  0  0  0  0
   12.6625   -7.9875    0.0000 C   0  0  0  0  0  0  0  0  0  0  0  0
   13.3833   -9.2250    0.0000 C   0  0  0  0  0  0  0  0  0  0  0  0
   -3.0167  -11.2709    0.0000 C   0  0  0  0  0  0  0  0  0  0  0  0
   -0.8834  -11.6834    0.0000 C   0  0  0  0  0  0  0  0  0  0  0  0
   -3.7292  -11.6750    0.0000 C   0  0  0  0  0  0  0  0  0  0  0  0
   -2.3084  -11.6792    0.0000 C   0  0  0  0  0  0  0  0  0  0  0  0
   15.5291  -11.2875    0.0000 C   0  0  0  0  0  0  0  0  0  0  0  0
   16.2458  -10.0500    0.0000 C   0  0  0  0  0  0  0  0  0  0  0  0
   -1.5959  -11.2709    0.0000 C   0  0  0  0  0  0  0  0  0  0  0  0
   14.0958   -8.8125    0.0000 C   0  0  0  0  0  0  0  0  0  0  0  0
   13.3750   -7.5750    0.0000 C   0  0  0  0  0  0  0  0  0  0  0  0
   14.0958   -7.9875    0.0000 C   0  0  0  0  0  0  0  0  0  0  0  0
   10.0500  -14.8292    0.0000 H   0  0  0  0  0  0  0  0  0  0  0  0
   -4.4354  -11.2600    0.0000 C   0  0  0  0  0  0  0  0  0  0  0  0
   -3.0138  -10.4533    0.0000 C   0  0  0  0  0  0  0  0  0  0  0  0
    1.9564  -14.1584    0.0000 C   0  0  0  0  0  0  0  0  0  0  0  0
    1.9564  -14.9834    0.0000 N   0  0  0  0  0  0  0  0  0  0  0  0
    6.2272  -14.1667    0.0000 C   0  0  0  0  0  0  0  0  0  0  0  0
    6.2272  -14.9917    0.0000 N   0  0  0  0  0  0  0  0  0  0  0  0
   11.9547  -11.6962    0.0000 C   0  0  0  0  0  0  0  0  0  0  0  0
   11.9593  -12.5216    0.0000 N   0  0  0  0  0  0  0  0  0  0  0  0
   16.1384  -12.5090    0.0000 C   0  0  0  0  0  0  0  0  0  0  0  0
   16.9638  -12.5181    0.0000 N   0  0  0  0  0  0  0  0  0  0  0  0
   13.0871  -15.6925    0.0000 C   0  0  0  0  0  0  0  0  0  0  0  0
   13.5226  -16.3918    0.0000 N   0  0  0  0  0  0  0  0  0  0  0  0
 13  8  1  0
 14 26  1  0
 15 10  1  0
 16 27  1  0
 17  7  1  0
 18  2  1  0
 19 12  1  0
 20 13  1  0
 21 23  1  0
 29 22  1  6
 27 23  1  6
 24  9  1  0
 25 15  1  0
 26 11  1  0
 27 48  1  0
 31 28  1  6
 29 21  1  0
 30 18  1  0
 31 17  1  0
 32 28  1  0
 33  4  2  0
 34  9  2  0
 35 12  2  0
 36 13  2  0
 37 16  2  0
 38 15  2  0
 39 14  2  0
 19 40  1  6
 41 17  2  0
 42 21  2  0
 43 18  2  0
 20 44  1  1
 45  2  1  0
 46  3  1  0
 47 32  2  0
 48 49  1  0
 49 30  1  0
 25 50  1  1
 26 51  1  6
 24 52  1  1
 29 53  1  0
 31 54  1  0
 55 40  1  0
 56 65  1  0
 57 69  1  0
 58 66  1  0
 59 67  1  0
 60 68  1  0
 45 61  1  6
 46 62  1  6
 63 44  1  0
 64 32  1  0
 65 52  1  0
 66 50  1  0
 67 51  1  0
 68 53  1  0
 69 54  1  0
 70 45  1  0
 71 46  1  0
 72 55  1  0
 73 55  2  0
 74 77  1  0
 75 64  1  0
 76 74  1  0
 77 80  1  0
 78 63  1  0
 79 63  1  0
 80 75  1  0
 81 73  1  0
 82 72  2  0
 83 81  2  0
  2 84  1  6
  6 19  1  0
 82 83  1  0
 76 85  1  0
  2  1  1  0
 74 86  1  0
  3  4  1  0
 57 87  1  0
  4 22  1  0
 87 88  1  0
  5 20  1  0
 60 89  1  0
  6 14  1  0
 89 90  1  0
  3  7  1  1
 59 91  1  0
  8 25  1  0
 91 92  1  0
  9  1  1  0
 58 93  1  0
 10 24  1  0
 93 94  1  0
 11 16  1  0
 56 95  1  0
 12  5  1  0
 95 96  1  0
M  END

> <chembl_id>
CHEMBL1090624

> <chembl_pref_name>
None

$$$$

     RDKit          2D

 46 47  0  0  0  0  0  0  0  0999 V2000
   33.6185   -8.9316    0.0000 C   0  0  0  0  0  0  0  0  0  0  0  0
   32.8013   -8.9279    0.0000 C   0  0  0  0  0  0  0  0  0  0  0  0
   34.0240   -9.6426    0.0000 O   0  0  0  0  0  0  0  0  0  0  0  0
   34.0304   -8.2243    0.0000 O   0  0  0  0  0  0  0  0  0  0  0  0
   32.3894   -9.6339    0.0000 F   0  0  0  0  0  0  0  0  0  0  0  0
   32.3958   -8.2183    0.0000 F   0  0  0  0  0  0  0  0  0  0  0  0
   31.9835   -8.9249    0.0000 F   0  0  0  0  0  0  0  0  0  0  0  0
   34.5170   -2.5812    0.0000 C   0  0  0  0  0  0  0  0  0  0  0  0
   34.5158   -3.4087    0.0000 C   0  0  0  0  0  0  0  0  0  0  0  0
   35.2309   -3.8217    0.0000 N   0  0  0  0  0  0  0  0  0  0  0  0
   35.2290   -2.1684    0.0000 C   0  0  0  0  0  0  0  0  0  0  0  0
   35.9446   -2.5775    0.0000 C   0  0  0  0  0  0  0  0  0  0  0  0
   35.9454   -3.4045    0.0000 C   0  0  0  0  0  0  0  0  0  0  0  0
   36.6609   -3.8155    0.0000 C   0  0  0  0  0  0  0  0  0  0  0  0
   37.3759   -3.4007    0.0000 C   0  0  0  0  0  0  0  0  0  0  0  0
   37.3711   -2.5706    0.0000 C   0  0  0  0  0  0  0  0  0  0  0  0
   36.6552   -2.1633    0.0000 C   0  0  0  0  0  0  0  0  0  0  0  0
   35.2337   -1.3452    0.0000 N   0  0  0  0  0  0  0  0  0  0  0  0
   30.9402   -3.7786    0.0000 N   0  0  0  0  0  0  0  0  0  0  0  0
   31.6567   -3.3652    0.0000 C   0  0  0  0  0  0  0  0  0  0  0  0
   31.6539   -2.5344    0.0000 C   0  0  0  0  0  0  0  0  0  0  0  0
   30.9383   -2.1254    0.0000 C   0  0  0  0  0  0  0  0  0  0  0  0
   30.2252   -3.3657    0.0000 C   0  0  0  0  0  0  0  0  0  0  0  0
   30.2275   -2.5399    0.0000 C   0  0  0  0  0  0  0  0  0  0  0  0
   29.5147   -2.1270    0.0000 C   0  0  0  0  0  0  0  0  0  0  0  0
   28.7990   -2.5384    0.0000 C   0  0  0  0  0  0  0  0  0  0  0  0
   28.8008   -3.3673    0.0000 C   0  0  0  0  0  0  0  0  0  0  0  0
   29.5142   -3.7766    0.0000 C   0  0  0  0  0  0  0  0  0  0  0  0
   30.9464   -1.3032    0.0000 N   0  0  0  0  0  0  0  0  0  0  0  0
   31.6650   -0.8976    0.0000 C   0  0  0  0  0  0  0  0  0  0  0  0
   32.3755   -1.3171    0.0000 C   0  0  0  0  0  0  0  0  0  0  0  0
   33.8046   -1.3312    0.0000 C   0  0  0  0  0  0  0  0  0  0  0  0
   34.5232   -0.9256    0.0000 C   0  0  0  0  0  0  0  0  0  0  0  0
   35.2328   -4.6468    0.0000 C   0  0  0  0  0  0  0  0  0  0  0  0
   34.5190   -5.0611    0.0000 C   0  0  0  0  0  0  0  0  0  0  0  0
   33.2159   -4.4876    0.0000 C   0  0  0  0  0  0  0  0  0  0  0  0
   31.6564   -5.0143    0.0000 C   0  0  0  0  0  0  0  0  0  0  0  0
   30.9410   -4.6034    0.0000 C   0  0  0  0  0  0  0  0  0  0  0  0
   33.1975   -6.6510    0.0000 O   0  0  0  0  0  0  0  0  0  0  0  0
   30.2590   -9.0200    0.0000 C   0  0  0  0  0  0  0  0  0  0  0  0
   29.4417   -9.0163    0.0000 C   0  0  0  0  0  0  0  0  0  0  0  0
   30.6644   -9.7310    0.0000 O   0  0  0  0  0  0  0  0  0  0  0  0
   30.6708   -8.3127    0.0000 O   0  0  0  0  0  0  0  0  0  0  0  0
   29.0299   -9.7223    0.0000 F   0  0  0  0  0  0  0  0  0  0  0  0
   29.0363   -8.3067    0.0000 F   0  0  0  0  0  0  0  0  0  0  0  0
   28.6240   -9.0133    0.0000 F   0  0  0  0  0  0  0  0  0  0  0  0
  1  2  1  0
  1  3  2  0
  1  4  1  0
  2  5  1  0
  2  6  1  0
  2  7  1  0
  8  9  2  0
  9 10  1  0
 10 13  2  0
 12 11  2  0
 11  8  1  0
 12 13  1  0
 13 14  1  0
 14 15  2  0
 15 16  1  0
 16 17  2  0
 17 12  1  0
 18 11  1  0
 23 19  1  0
 19 20  2  0
 20 21  1  0
 21 22  2  0
 22 24  1  0
 23 24  1  0
 24 25  2  0
 25 26  1  0
 26 27  2  0
 27 28  1  0
 28 23  2  0
 29 22  1  0
 29 30  1  0
 30 31  1  0
 32 33  1  0
 33 18  1  0
 19 38  1  0
 10 34  1  0
 34 35  1  0
 35 36  1  0
 36 37  1  0
 37 38  1  0
 31 32  2  0
 40 41  1  0
 40 42  2  0
 40 43  1  0
 41 44  1  0
 41 45  1  0
 41 46  1  0
M  CHG  4   4  -1  10   1  19   1  43  -1
M  END

> <chembl_id>
CHEMBL2391820

> <chembl_pref_name>
None

$$$$

     RDKit          2D

 29 31  0  0  0  0  0  0  0  0999 V2000
   -0.6186    0.8500    0.0000 S   0  0  0  0  0  0  0  0  0  0  0  0
    1.8338   -1.3581    0.0000 F   0  0  0  0  0  0  0  0  0  0  0  0
   -1.8991    2.5581    0.0000 O   0  0  0  0  0  0  0  0  0  0  0  0
   -0.0665    1.4631    0.0000 O   0  0  0  0  0  0  0  0  0  0  0  0
   -1.1706    0.2369    0.0000 O   0  0  0  0  0  0  0  0  0  0  0  0
    0.9980    3.4600    0.0000 O   0  0  0  0  0  0  0  0  0  0  0  0
    1.7125    1.3975    0.0000 O   0  0  0  0  0  0  0  0  0  0  0  0
   -1.2317    1.4020    0.0000 N   0  0  0  0  0  0  0  0  0  0  0  0
    0.2835    2.2225    0.0000 N   0  0  0  0  0  0  0  0  0  0  0  0
    2.4269    2.6350    0.0000 N   0  0  0  0  0  0  0  0  0  0  0  0
    5.2848    2.6350    0.0000 N   0  0  0  0  0  0  0  0  0  0  0  0
   -0.0055    0.2980    0.0000 C   0  0  0  0  0  0  0  0  0  0  0  0
   -1.1454    2.2225    0.0000 C   0  0  0  0  0  0  0  0  0  0  0  0
   -2.0386    1.2305    0.0000 C   0  0  0  0  0  0  0  0  0  0  0  0
    0.7792    0.5529    0.0000 C   0  0  0  0  0  0  0  0  0  0  0  0
   -0.1770   -0.5090    0.0000 C   0  0  0  0  0  0  0  0  0  0  0  0
   -2.4511    1.9450    0.0000 C   0  0  0  0  0  0  0  0  0  0  0  0
   -0.4309    2.6350    0.0000 C   0  0  0  0  0  0  0  0  0  0  0  0
    1.3923    0.0009    0.0000 C   0  0  0  0  0  0  0  0  0  0  0  0
    0.4361   -1.0610    0.0000 C   0  0  0  0  0  0  0  0  0  0  0  0
    1.2207   -0.8061    0.0000 C   0  0  0  0  0  0  0  0  0  0  0  0
    0.9980    2.6350    0.0000 C   0  0  0  0  0  0  0  0  0  0  0  0
    1.7125    2.2225    0.0000 C   0  0  0  0  0  0  0  0  0  0  0  0
    3.8559    2.6350    0.0000 C   0  0  0  0  0  0  0  0  0  0  0  0
    3.1414    2.2225    0.0000 C   0  0  0  0  0  0  0  0  0  0  0  0
    4.5703    2.2225    0.0000 C   0  0  0  0  0  0  0  0  0  0  0  0
    3.8559    3.4600    0.0000 C   0  0  0  0  0  0  0  0  0  0  0  0
    4.5703    3.8725    0.0000 C   0  0  0  0  0  0  0  0  0  0  0  0
    5.2848    3.4600    0.0000 C   0  0  0  0  0  0  0  0  0  0  0  0
  1  4  2  0
  1  5  2  0
  1  8  1  0
  1 12  1  0
  2 21  1  0
  3 13  1  0
  3 17  1  0
  6 22  2  0
  7 23  2  0
  8 13  1  0
  8 14  1  0
  9 18  1  0
  9 22  1  0
 10 23  1  0
 10 25  1  0
 11 26  2  0
 11 29  1  0
 12 15  2  0
 12 16  1  0
 13 18  1  0
 14 17  1  0
 15 19  1  0
 16 20  2  0
 19 21  2  0
 20 21  1  0
 22 23  1  0
 24 25  1  0
 24 26  1  0
 24 27  2  0
 27 28  1  0
 28 29  2  0
M  END

> <chembl_id>
CHEMBL1440294

> <chembl_pref_name>
None

$$$$

     RDKit          2D

 22 22  0  0  0  0  0  0  0  0999 V2000
    5.2072    0.1736    0.0000 O   0  0  0  0  0  0  0  0  0  0  0  0
    8.6294    1.7241    0.0000 O   0  0  0  0  0  0  0  0  0  0  0  0
    6.6361    0.9986    0.0000 O   0  0  0  0  0  0  0  0  0  0  0  0
    8.0651    0.1736    0.0000 N   0  0  0  0  0  0  0  0  0  0  0  0
    3.0638   -0.2389    0.0000 C   0  0  0  0  0  0  0  0  0  0  0  0
    4.4927   -0.2389    0.0000 C   0  0  0  0  0  0  0  0  0  0  0  0
    7.3506   -0.2389    0.0000 C   0  0  0  0  0  0  0  0  0  0  0  0
    3.7783    0.1736    0.0000 C   0  0  0  0  0  0  0  0  0  0  0  0
    3.0638   -1.0639    0.0000 C   0  0  0  0  0  0  0  0  0  0  0  0
    3.7783   -1.4764    0.0000 C   0  0  0  0  0  0  0  0  0  0  0  0
    6.6361    0.1736    0.0000 C   0  0  0  0  0  0  0  0  0  0  0  0
    8.8775    0.3168    0.0000 C   0  0  0  0  0  0  0  0  0  0  0  0
    7.5348    0.8056    0.0000 C   0  0  0  0  0  0  0  0  0  0  0  0
    4.4927   -1.0639    0.0000 C   0  0  0  0  0  0  0  0  0  0  0  0
    5.9217   -0.2389    0.0000 C   0  0  0  0  0  0  0  0  0  0  0  0
    8.3472   -0.6017    0.0000 C   0  0  0  0  0  0  0  0  0  0  0  0
    9.1597    1.0921    0.0000 C   0  0  0  0  0  0  0  0  0  0  0  0
    7.8169    1.5808    0.0000 C   0  0  0  0  0  0  0  0  0  0  0  0
    2.6266    0.4607    0.0000 C   0  0  0  0  0  0  0  0  0  0  0  0
    2.2393   -0.2101    0.0000 C   0  0  0  0  0  0  0  0  0  0  0  0
    3.7783   -2.3014    0.0000 C   0  0  0  0  0  0  0  0  0  0  0  0
    0.0000    0.0000    0.0000 I   0  0  0  0  0  0  0  0  0  0  0  0
  1  6  1  0
  1 15  1  0
  2 17  1  0
  2 18  1  0
  3 11  1  0
  4  7  1  0
  4 12  1  0
  4 13  1  0
  4 16  1  0
  5  8  1  0
  5  9  1  0
  5 19  1  0
  5 20  1  0
  6  8  1  0
  6 14  1  0
  7 11  1  0
  9 10  1  0
 10 14  1  0
 10 21  1  0
 11 15  1  0
 12 17  1  0
 13 18  1  0
M  CHG  2   4   1  22  -1
M  END

> <chembl_id>
CHEMBL1725108

> <chembl_pref_name>
None

$$$$

     RDKit          2D

 34 36  0  0  0  0  0  0  0  0999 V2000
    4.3338   -1.0150    0.0000 S   0  0  0  0  0  0  0  0  0  0  0  0
    6.8133    0.5002    0.0000 S   0  0  0  0  0  0  0  0  0  0  0  0
    4.3338   -1.8400    0.0000 O   0  0  0  0  0  0  0  0  0  0  0  0
    4.3338   -0.1900    0.0000 O   0  0  0  0  0  0  0  0  0  0  0  0
    8.0708    2.9572    0.0000 O   0  0  0  0  0  0  0  0  0  0  0  0
    8.0463   -1.7294    0.0000 O   0  0  0  0  0  0  0  0  0  0  0  0
    8.0463   -0.3005    0.0000 N   0  0  0  0  0  0  0  0  0  0  0  0
    7.9694    1.1677    0.0000 N   0  0  0  0  0  0  0  0  0  0  0  0
    3.5088   -1.0150    0.0000 N   0  0  0  0  0  0  0  0  0  0  0  0
   10.1088   -1.0150    0.0000 N   0  0  0  0  0  0  0  0  0  0  0  0
    7.6338    0.4140    0.0000 C   0  0  0  0  0  0  0  0  0  0  0  0
    7.3563    1.7197    0.0000 C   0  0  0  0  0  0  0  0  0  0  0  0
    6.6418    1.3072    0.0000 C   0  0  0  0  0  0  0  0  0  0  0  0
    7.6338   -1.0150    0.0000 C   0  0  0  0  0  0  0  0  0  0  0  0
    5.1588   -1.0150    0.0000 C   0  0  0  0  0  0  0  0  0  0  0  0
    6.8088   -1.0150    0.0000 C   0  0  0  0  0  0  0  0  0  0  0  0
    7.3563    2.5447    0.0000 C   0  0  0  0  0  0  0  0  0  0  0  0
    5.5713   -0.3005    0.0000 C   0  0  0  0  0  0  0  0  0  0  0  0
    5.5713   -1.7294    0.0000 C   0  0  0  0  0  0  0  0  0  0  0  0
    5.9274    1.7197    0.0000 C   0  0  0  0  0  0  0  0  0  0  0  0
    6.3963   -0.3005    0.0000 C   0  0  0  0  0  0  0  0  0  0  0  0
    6.3963   -1.7294    0.0000 C   0  0  0  0  0  0  0  0  0  0  0  0
    8.8713   -0.3005    0.0000 C   0  0  0  0  0  0  0  0  0  0  0  0
    6.6418    2.9572    0.0000 C   0  0  0  0  0  0  0  0  0  0  0  0
    5.9274    2.5447    0.0000 C   0  0  0  0  0  0  0  0  0  0  0  0
    3.0239   -1.6824    0.0000 C   0  0  0  0  0  0  0  0  0  0  0  0
    3.0239   -0.3475    0.0000 C   0  0  0  0  0  0  0  0  0  0  0  0
    2.2393   -1.4275    0.0000 C   0  0  0  0  0  0  0  0  0  0  0  0
    2.2393   -0.6025    0.0000 C   0  0  0  0  0  0  0  0  0  0  0  0
    9.2838   -1.0150    0.0000 C   0  0  0  0  0  0  0  0  0  0  0  0
    8.0708    3.7822    0.0000 C   0  0  0  0  0  0  0  0  0  0  0  0
   10.5213   -0.3005    0.0000 C   0  0  0  0  0  0  0  0  0  0  0  0
   10.5213   -1.7294    0.0000 C   0  0  0  0  0  0  0  0  0  0  0  0
    0.0000    0.0000    0.0000 Cl  0  0  0  0  0  0  0  0  0  0  0  0
  1  3  2  0
  1  4  2  0
  1  9  1  0
  1 15  1  0
  2 11  1  0
  2 13  1  0
  5 17  1  0
  5 31  1  0
  6 14  2  0
  7 11  1  0
  7 14  1  0
  7 23  1  0
  8 11  2  0
  8 12  1  0
  9 26  1  0
  9 27  1  0
 10 30  1  0
 10 32  1  0
 10 33  1  0
 12 13  2  0
 12 17  1  0
 13 20  1  0
 14 16  1  0
 15 18  2  0
 15 19  1  0
 16 21  2  0
 16 22  1  0
 17 24  2  0
 18 21  1  0
 19 22  2  0
 20 25  2  0
 23 30  1  0
 24 25  1  0
 26 28  1  0
 27 29  1  0
 28 29  1  0
M  END

> <chembl_id>
CHEMBL1704649

> <chembl_pref_name>
None

$$$$

     RDKit          2D

 32 35  0  0  0  0  0  0  0  0999 V2000
    7.1545   -0.6836    0.0000 C   0  0  0  0  0  0  0  0  0  0  0  0
    7.1381   -1.5085    0.0000 N   0  0  0  0  0  0  0  0  0  0  0  0
    7.9441   -0.4444    0.0000 N   0  0  0  0  0  0  0  0  0  0  0  0
    8.4147   -1.1187    0.0000 C   0  0  0  0  0  0  0  0  0  0  0  0
    7.9177   -1.7759    0.0000 C   0  0  0  0  0  0  0  0  0  0  0  0
    8.2386   -2.5329    0.0000 C   0  0  0  0  0  0  0  0  0  0  0  0
    9.0561   -2.6338    0.0000 C   0  0  0  0  0  0  0  0  0  0  0  0
    9.5519   -1.9716    0.0000 C   0  0  0  0  0  0  0  0  0  0  0  0
    9.2283   -1.2173    0.0000 C   0  0  0  0  0  0  0  0  0  0  0  0
   -3.5598    0.5125    0.0000 C   0  0  0  0  0  0  0  0  0  0  0  0
   -3.5609   -0.3148    0.0000 C   0  0  0  0  0  0  0  0  0  0  0  0
   -2.8461   -0.7277    0.0000 N   0  0  0  0  0  0  0  0  0  0  0  0
   -2.1297   -0.3144    0.0000 C   0  0  0  0  0  0  0  0  0  0  0  0
   -2.1325    0.5162    0.0000 C   0  0  0  0  0  0  0  0  0  0  0  0
   -2.8479    0.9253    0.0000 C   0  0  0  0  0  0  0  0  0  0  0  0
   -1.4196    0.9314    0.0000 C   0  0  0  0  0  0  0  0  0  0  0  0
   -0.7036    0.5216    0.0000 C   0  0  0  0  0  0  0  0  0  0  0  0
   -1.4227    1.7564    0.0000 O   0  0  0  0  0  0  0  0  0  0  0  0
    0.0093    0.9367    0.0000 N   0  0  0  0  0  0  0  0  0  0  0  0
    0.7253    0.5269    0.0000 C   0  0  0  0  0  0  0  0  0  0  0  0
    1.4383    0.9421    0.0000 C   0  0  0  0  0  0  0  0  0  0  0  0
    2.1543    0.5323    0.0000 C   0  0  0  0  0  0  0  0  0  0  0  0
    2.1545   -0.2927    0.0000 C   0  0  0  0  0  0  0  0  0  0  0  0
    2.8697   -0.7025    0.0000 C   0  0  0  0  0  0  0  0  0  0  0  0
    3.5836   -0.2872    0.0000 C   0  0  0  0  0  0  0  0  0  0  0  0
    3.5778    0.5420    0.0000 C   0  0  0  0  0  0  0  0  0  0  0  0
    2.8620    0.9480    0.0000 C   0  0  0  0  0  0  0  0  0  0  0  0
    4.3001   -0.6961    0.0000 N   0  0  0  0  0  0  0  0  0  0  0  0
    5.0125   -0.2799    0.0000 C   0  0  0  0  0  0  0  0  0  0  0  0
    5.0083    0.5450    0.0000 O   0  0  0  0  0  0  0  0  0  0  0  0
    5.7291   -0.6888    0.0000 C   0  0  0  0  0  0  0  0  0  0  0  0
    6.4414   -0.2727    0.0000 C   0  0  0  0  0  0  0  0  0  0  0  0
  3  1  2  0
 14 16  1  0
  7  8  1  0
 16 17  1  0
  1  2  1  0
 16 18  1  1
  8  9  2  0
 17 19  1  0
  9  4  1  0
 19 20  1  0
 20 21  1  0
  4  5  2  0
 21 22  1  0
 10 11  2  0
 22 23  2  0
  2  5  1  0
 23 24  1  0
 11 12  1  0
 24 25  2  0
  5  6  1  0
 25 26  1  0
 12 13  2  0
 26 27  2  0
 27 22  1  0
  4  3  1  0
 25 28  1  0
 13 14  1  0
 28 29  1  0
  6  7  2  0
 29 30  2  0
 14 15  2  0
 29 31  1  0
 15 10  1  0
 31 32  1  0
 32  1  1  0
M  END

> <chembl_id>
CHEMBL1085694

> <chembl_pref_name>
None

$$$$

     RDKit          2D

 26 28  0  0  0  0  0  0  0  0999 V2000
   -2.9777   -0.0955    0.0000 F   0  0  0  0  0  0  0  0  0  0  0  0
    1.7898   -2.2621    0.0000 O   0  0  0  0  0  0  0  0  0  0  0  0
    1.7898    0.6420    0.0000 O   0  0  0  0  0  0  0  0  0  0  0  0
    5.6873   -1.2225    0.0000 O   0  0  0  0  0  0  0  0  0  0  0  0
    4.9728   -2.4600    0.0000 O   0  0  0  0  0  0  0  0  0  0  0  0
    0.3223    1.3334    0.0000 O   0  0  0  0  0  0  0  0  0  0  0  0
    1.5598   -0.8100    0.0000 N   0  0  0  0  0  0  0  0  0  0  0  0
    0.3223   -0.0955    0.0000 N   0  0  0  0  0  0  0  0  0  0  0  0
    4.9728   -1.6350    0.0000 N   0  0  0  0  0  0  0  0  0  0  0  0
    2.8294   -1.2225    0.0000 C   0  0  0  0  0  0  0  0  0  0  0  0
    2.8294   -0.3975    0.0000 C   0  0  0  0  0  0  0  0  0  0  0  0
    2.0448   -1.4775    0.0000 C   0  0  0  0  0  0  0  0  0  0  0  0
    2.0448   -0.1426    0.0000 C   0  0  0  0  0  0  0  0  0  0  0  0
    3.5438   -1.6350    0.0000 C   0  0  0  0  0  0  0  0  0  0  0  0
    0.7348   -0.8100    0.0000 C   0  0  0  0  0  0  0  0  0  0  0  0
    3.5438    0.0150    0.0000 C   0  0  0  0  0  0  0  0  0  0  0  0
    4.2583   -1.2225    0.0000 C   0  0  0  0  0  0  0  0  0  0  0  0
    4.2583   -0.3975    0.0000 C   0  0  0  0  0  0  0  0  0  0  0  0
   -0.5027   -0.0955    0.0000 C   0  0  0  0  0  0  0  0  0  0  0  0
    0.7348    0.6189    0.0000 C   0  0  0  0  0  0  0  0  0  0  0  0
   -0.9152   -0.8100    0.0000 C   0  0  0  0  0  0  0  0  0  0  0  0
   -0.9152    0.6189    0.0000 C   0  0  0  0  0  0  0  0  0  0  0  0
   -1.7402   -0.8100    0.0000 C   0  0  0  0  0  0  0  0  0  0  0  0
   -1.7402    0.6189    0.0000 C   0  0  0  0  0  0  0  0  0  0  0  0
   -2.1527   -0.0955    0.0000 C   0  0  0  0  0  0  0  0  0  0  0  0
    1.5195    0.8739    0.0000 C   0  0  0  0  0  0  0  0  0  0  0  0
  1 25  1  0
  2 12  2  0
  3 13  2  0
  4  9  1  0
  5  9  2  0
  6 20  2  0
  7 12  1  0
  7 13  1  0
  7 15  1  0
  8 15  1  0
  8 19  1  0
  8 20  1  0
  9 17  1  0
 10 11  1  0
 10 12  1  0
 10 14  2  0
 11 13  1  0
 11 16  2  0
 14 17  1  0
 16 18  1  0
 17 18  2  0
 19 21  2  0
 19 22  1  0
 20 26  1  0
 21 23  1  0
 22 24  2  0
 23 25  2  0
 24 25  1  0
M  CHG  2   4  -1   9   1
M  END

> <chembl_id>
CHEMBL1340894

> <chembl_pref_name>
None

$$$$

     RDKit          2D

 30 31  0  0  0  0  0  0  0  0999 V2000
   11.1739  -22.5058    0.0000 Cl  0  0  0  0  0  0  0  0  0  0  0  0
   10.2792  -21.0535    0.0000 C   0  0  0  0  0  0  0  0  0  0  0  0
   13.1202  -19.4040    0.0000 H   0  0  0  0  0  0  0  0  0  0  0  0
    8.1393  -22.3019    0.0000 O   0  0  0  0  0  0  0  0  0  0  0  0
   10.2745  -20.2333    0.0000 C   0  0  0  0  0  0  0  0  0  0  0  0
   14.5532  -20.2351    0.0000 C   0  0  0  0  0  0  0  0  0  0  0  0
   14.5497  -21.0602    0.0000 N   0  0  0  0  0  0  0  0  0  0  0  0
   13.1241  -21.0541    0.0000 C   0  0  0  0  0  0  0  0  0  0  0  0
   13.8398  -19.8174    0.0000 C   0  0  0  0  0  0  0  0  0  0  0  0
   11.7035  -21.0541    0.0000 C   0  0  0  0  0  0  0  0  0  0  0  0
   10.9878  -19.8187    0.0000 C   0  0  0  0  0  0  0  0  0  0  0  0
    8.8486  -21.0595    0.0000 C   0  0  0  0  0  0  0  0  0  0  0  0
   15.2698  -19.8263    0.0000 C   0  0  0  0  0  0  0  0  0  0  0  0
    9.5693  -21.4697    0.0000 C   0  0  0  0  0  0  0  0  0  0  0  0
    7.4123  -21.0675    0.0000 O   0  0  0  0  0  0  0  0  0  0  0  0
   11.7035  -20.2291    0.0000 C   0  0  0  0  0  0  0  0  0  0  0  0
   12.4155  -19.8124    0.0000 C   0  0  0  0  0  0  0  0  0  0  0  0
   15.9833  -20.2405    0.0000 O   0  0  0  0  0  0  0  0  0  0  0  0
    9.5594  -19.8197    0.0000 C   0  0  0  0  0  0  0  0  0  0  0  0
   13.1276  -20.2291    0.0000 C   0  0  0  0  0  0  0  0  0  0  0  0
    8.8467  -20.2336    0.0000 C   0  0  0  0  0  0  0  0  0  0  0  0
   13.8329  -21.4673    0.0000 C   0  0  0  0  0  0  0  0  0  0  0  0
   13.1161  -21.8750    0.0000 H   0  0  0  0  0  0  0  0  0  0  0  0
   12.4155  -21.4625    0.0000 C   0  0  0  0  0  0  0  0  0  0  0  0
   15.2754  -18.9992    0.0000 O   0  0  0  0  0  0  0  0  0  0  0  0
    8.1358  -21.4769    0.0000 C   0  0  0  0  0  0  0  0  0  0  0  0
    7.4052  -20.2504    0.0000 C   0  0  0  0  0  0  0  0  0  0  0  0
    6.6940  -19.8479    0.0000 C   0  0  0  0  0  0  0  0  0  0  0  0
   15.9814  -21.0577    0.0000 C   0  0  0  0  0  0  0  0  0  0  0  0
   16.6881  -21.4680    0.0000 C   0  0  0  0  0  0  0  0  0  0  0  0
 20 17  1  0
 26  4  2  0
 11  5  1  0
 16 10  1  0
  7  6  1  0
 22  7  1  0
 20  3  1  1
 20  9  1  0
 20  8  1  0
  8 23  1  1
 16 11  1  6
 24  8  1  0
  6 13  1  1
  5 19  2  0
 16 17  1  0
 14  2  2  0
 13 25  2  0
 12 14  1  0
 12 26  1  0
 19 21  1  0
 26 15  1  0
  8 22  1  0
  6  9  1  0
  2  5  1  0
 13 18  1  0
 21 12  2  0
 10 24  1  0
 15 27  1  0
 27 28  1  0
 18 29  1  0
 29 30  1  0
M  END

> <chembl_id>
CHEMBL2440706

> <chembl_pref_name>
None

$$$$

     RDKit          2D

 23 25  0  0  0  0  0  0  0  0999 V2000
   -1.8888   -2.1064    0.0000 F   0  0  0  0  0  0  0  0  0  0  0  0
    4.7522   -1.5989    0.0000 O   0  0  0  0  0  0  0  0  0  0  0  0
    3.3001    0.9161    0.0000 O   0  0  0  0  0  0  0  0  0  0  0  0
    0.9691   -0.4564    0.0000 O   0  0  0  0  0  0  0  0  0  0  0  0
    1.6836   -1.6939    0.0000 O   0  0  0  0  0  0  0  0  0  0  0  0
    3.8270   -0.4564    0.0000 N   0  0  0  0  0  0  0  0  0  0  0  0
    5.1327   -0.1789    0.0000 C   0  0  0  0  0  0  0  0  0  0  0  0
    4.7202    0.5356    0.0000 C   0  0  0  0  0  0  0  0  0  0  0  0
    4.5807   -0.7920    0.0000 C   0  0  0  0  0  0  0  0  0  0  0  0
    3.9132    0.3641    0.0000 C   0  0  0  0  0  0  0  0  0  0  0  0
    5.9577   -0.1789    0.0000 C   0  0  0  0  0  0  0  0  0  0  0  0
    5.1327    1.2501    0.0000 C   0  0  0  0  0  0  0  0  0  0  0  0
    3.1125   -0.8689    0.0000 C   0  0  0  0  0  0  0  0  0  0  0  0
    6.3702    0.5356    0.0000 C   0  0  0  0  0  0  0  0  0  0  0  0
    5.9577    1.2501    0.0000 C   0  0  0  0  0  0  0  0  0  0  0  0
    2.3980   -0.4564    0.0000 C   0  0  0  0  0  0  0  0  0  0  0  0
    1.6836   -0.8689    0.0000 C   0  0  0  0  0  0  0  0  0  0  0  0
    0.2546   -0.8689    0.0000 C   0  0  0  0  0  0  0  0  0  0  0  0
    0.2546   -1.6939    0.0000 C   0  0  0  0  0  0  0  0  0  0  0  0
   -0.4598   -0.4564    0.0000 C   0  0  0  0  0  0  0  0  0  0  0  0
   -1.1743   -1.6939    0.0000 C   0  0  0  0  0  0  0  0  0  0  0  0
   -0.4598   -2.1064    0.0000 C   0  0  0  0  0  0  0  0  0  0  0  0
   -1.1743   -0.8689    0.0000 C   0  0  0  0  0  0  0  0  0  0  0  0
  1 21  1  0
  2  9  2  0
  3 10  2  0
  4 17  1  0
  4 18  1  0
  5 17  2  0
  6  9  1  0
  6 10  1  0
  6 13  1  0
  7  8  1  0
  7  9  1  0
  7 11  2  0
  8 10  1  0
  8 12  2  0
 11 14  1  0
 12 15  1  0
 13 16  1  0
 14 15  2  0
 16 17  1  0
 18 19  2  0
 18 20  1  0
 19 22  1  0
 20 23  2  0
 21 22  2  0
 21 23  1  0
M  END

> <chembl_id>
CHEMBL1441694

> <chembl_pref_name>
None

$$$$

     RDKit          2D

 39 42  0  0  0  0  0  0  0  0999 V2000
   -0.6181    0.3709    0.0000 C   0  0  0  0  0  0  0  0  0  0  0  0
   -0.6193   -0.4565    0.0000 C   0  0  0  0  0  0  0  0  0  0  0  0
    0.0956   -0.8694    0.0000 C   0  0  0  0  0  0  0  0  0  0  0  0
    0.8120   -0.4560    0.0000 C   0  0  0  0  0  0  0  0  0  0  0  0
    0.8091    0.3745    0.0000 C   0  0  0  0  0  0  0  0  0  0  0  0
    0.0938    0.7836    0.0000 C   0  0  0  0  0  0  0  0  0  0  0  0
    0.0954   -1.6944    0.0000 O   0  0  0  0  0  0  0  0  0  0  0  0
    0.8097   -2.1070    0.0000 C   0  0  0  0  0  0  0  0  0  0  0  0
    0.8095   -2.9320    0.0000 C   0  0  0  0  0  0  0  0  0  0  0  0
    1.5243   -1.6947    0.0000 O   0  0  0  0  0  0  0  0  0  0  0  0
    0.0945   -3.3400    0.0000 C   0  0  0  0  0  0  0  0  0  0  0  0
    0.0940   -4.1643    0.0000 C   0  0  0  0  0  0  0  0  0  0  0  0
    0.8089   -4.5778    0.0000 C   0  0  0  0  0  0  0  0  0  0  0  0
    1.5258   -4.1610    0.0000 C   0  0  0  0  0  0  0  0  0  0  0  0
    1.5229   -3.3381    0.0000 C   0  0  0  0  0  0  0  0  0  0  0  0
    1.5271   -0.8674    0.0000 O   0  0  0  0  0  0  0  0  0  0  0  0
    2.2409   -0.4538    0.0000 C   0  0  0  0  0  0  0  0  0  0  0  0
    2.9561   -0.8652    0.0000 C   0  0  0  0  0  0  0  0  0  0  0  0
    2.2396    0.3712    0.0000 O   0  0  0  0  0  0  0  0  0  0  0  0
    2.9527   -1.6886    0.0000 C   0  0  0  0  0  0  0  0  0  0  0  0
    3.6670   -2.0999    0.0000 C   0  0  0  0  0  0  0  0  0  0  0  0
    4.3818   -1.6862    0.0000 C   0  0  0  0  0  0  0  0  0  0  0  0
    4.3778   -0.8569    0.0000 C   0  0  0  0  0  0  0  0  0  0  0  0
    3.6630   -0.4494    0.0000 C   0  0  0  0  0  0  0  0  0  0  0  0
   -1.3340   -0.8684    0.0000 O   0  0  0  0  0  0  0  0  0  0  0  0
   -2.0482   -0.4554    0.0000 C   0  0  0  0  0  0  0  0  0  0  0  0
   -2.7630   -0.8673    0.0000 C   0  0  0  0  0  0  0  0  0  0  0  0
   -2.0475    0.3696    0.0000 O   0  0  0  0  0  0  0  0  0  0  0  0
   -3.4764   -0.4520    0.0000 C   0  0  0  0  0  0  0  0  0  0  0  0
   -4.1907   -0.8633    0.0000 C   0  0  0  0  0  0  0  0  0  0  0  0
   -4.1918   -1.6892    0.0000 C   0  0  0  0  0  0  0  0  0  0  0  0
   -3.4726   -2.1021    0.0000 C   0  0  0  0  0  0  0  0  0  0  0  0
   -2.7612   -1.6884    0.0000 C   0  0  0  0  0  0  0  0  0  0  0  0
    5.0902   -0.4408    0.0000 O   0  0  0  0  0  0  0  0  0  0  0  0
    5.0974   -2.0966    0.0000 O   0  0  0  0  0  0  0  0  0  0  0  0
    2.2416   -4.5712    0.0000 O   0  0  0  0  0  0  0  0  0  0  0  0
    0.8098   -5.4028    0.0000 O   0  0  0  0  0  0  0  0  0  0  0  0
   -3.4704   -2.9271    0.0000 O   0  0  0  0  0  0  0  0  0  0  0  0
   -4.9060   -2.1020    0.0000 O   0  0  0  0  0  0  0  0  0  0  0  0
 17 19  2  0
  4  5  1  0
 18 20  2  0
  8 10  2  0
 20 21  1  0
  2  3  1  0
 21 22  2  0
  9 11  2  0
 22 23  1  0
  5  6  2  0
 23 24  2  0
 24 18  1  0
 11 12  1  0
  2 25  1  0
  6  1  1  0
 25 26  1  0
 12 13  2  0
 26 27  1  0
  1  2  2  0
 26 28  2  0
 13 14  1  0
 27 29  2  0
  3  7  1  0
 29 30  1  0
 14 15  2  0
 30 31  2  0
 15  9  1  0
 31 32  1  0
  3  4  2  0
 32 33  2  0
 33 27  1  0
  4 16  1  0
 23 34  1  0
  7  8  1  0
 22 35  1  0
 16 17  1  0
 14 36  1  0
 13 37  1  0
 17 18  1  0
 32 38  1  0
  8  9  1  0
 31 39  1  0
M  END

> <chembl_id>
CHEMBL1090394

> <chembl_pref_name>
None

$$$$

     RDKit          2D

 19 20  0  0  0  0  0  0  0  0999 V2000
   -2.1739    4.0517    0.0000 Cl  0  0  0  0  0  0  0  0  0  0  0  0
   -0.7450    4.8767    0.0000 Cl  0  0  0  0  0  0  0  0  0  0  0  0
   -0.7450    1.5767    0.0000 S   0  0  0  0  0  0  0  0  0  0  0  0
   -1.5700    1.5767    0.0000 O   0  0  0  0  0  0  0  0  0  0  0  0
    0.0800    1.5767    0.0000 O   0  0  0  0  0  0  0  0  0  0  0  0
   -0.7450    0.7517    0.0000 N   0  0  0  0  0  0  0  0  0  0  0  0
   -2.1739   -1.7233    0.0000 N   0  0  0  0  0  0  0  0  0  0  0  0
   -0.7450    2.4017    0.0000 C   0  0  0  0  0  0  0  0  0  0  0  0
   -1.4594    2.8142    0.0000 C   0  0  0  0  0  0  0  0  0  0  0  0
   -1.4594    3.6392    0.0000 C   0  0  0  0  0  0  0  0  0  0  0  0
   -0.0305    2.8142    0.0000 C   0  0  0  0  0  0  0  0  0  0  0  0
   -0.7450    4.0517    0.0000 C   0  0  0  0  0  0  0  0  0  0  0  0
   -0.0305    3.6392    0.0000 C   0  0  0  0  0  0  0  0  0  0  0  0
   -1.4594    0.3392    0.0000 C   0  0  0  0  0  0  0  0  0  0  0  0
   -1.4594   -0.4858    0.0000 C   0  0  0  0  0  0  0  0  0  0  0  0
   -2.1739   -0.8983    0.0000 C   0  0  0  0  0  0  0  0  0  0  0  0
   -0.7450   -0.8983    0.0000 C   0  0  0  0  0  0  0  0  0  0  0  0
   -0.7450   -1.7233    0.0000 C   0  0  0  0  0  0  0  0  0  0  0  0
   -1.4594   -2.1358    0.0000 C   0  0  0  0  0  0  0  0  0  0  0  0
  1 10  1  0
  2 12  1  0
  3  4  2  0
  3  5  2  0
  3  6  1  0
  3  8  1  0
  6 14  1  0
  7 16  2  0
  7 19  1  0
  8  9  1  0
  8 11  2  0
  9 10  2  0
 10 12  1  0
 11 13  1  0
 12 13  2  0
 14 15  1  0
 15 16  1  0
 15 17  2  0
 17 18  1  0
 18 19  2  0
M  END

> <chembl_id>
CHEMBL1604064

> <chembl_pref_name>
None

$$$$

     RDKit          2D

 28 31  0  0  0  0  0  0  0  0999 V2000
   17.7328  -10.6094    0.0000 C   0  0  0  0  0  0  0  0  0  0  0  0
   14.8909  -10.6501    0.0000 C   0  0  0  0  0  0  0  0  0  0  0  0
   14.8882  -11.4676    0.0000 C   0  0  0  0  0  0  0  0  0  0  0  0
   15.6073  -11.8860    0.0000 C   0  0  0  0  0  0  0  0  0  0  0  0
   15.6005  -10.2320    0.0000 C   0  0  0  0  0  0  0  0  0  0  0  0
   16.3209  -10.6425    0.0000 C   0  0  0  0  0  0  0  0  0  0  0  0
   16.3257  -11.4668    0.0000 C   0  0  0  0  0  0  0  0  0  0  0  0
   17.0413  -11.8762    0.0000 P   0  0  0  0  0  0  0  0  0  0  0  0
   17.7592  -11.4582    0.0000 O   0  0  0  0  0  0  0  0  0  0  0  0
   17.0303  -10.2235    0.0000 C   0  0  0  0  0  0  0  0  0  0  0  0
   16.5145  -12.5117    0.0000 O   0  0  0  0  0  0  0  0  0  0  0  0
   17.5743  -12.5069    0.0000 O   0  0  0  0  0  0  0  0  0  0  0  0
   18.4036  -12.5016    0.0000 C   0  0  0  0  0  0  0  0  0  0  0  0
   18.8528  -13.1959    0.0000 C   0  0  0  0  0  0  0  0  0  0  0  0
   17.0139   -9.3960    0.0000 C   0  0  0  0  0  0  0  0  0  0  0  0
   18.3063  -10.0182    0.0000 C   0  0  0  0  0  0  0  0  0  0  0  0
   19.1047  -10.2214    0.0000 C   0  0  0  0  0  0  0  0  0  0  0  0
   19.6778   -9.6311    0.0000 C   0  0  0  0  0  0  0  0  0  0  0  0
   19.4528   -8.8379    0.0000 C   0  0  0  0  0  0  0  0  0  0  0  0
   18.6494   -8.6384    0.0000 C   0  0  0  0  0  0  0  0  0  0  0  0
   18.0797   -9.2302    0.0000 C   0  0  0  0  0  0  0  0  0  0  0  0
   16.9976   -8.5726    0.0000 C   0  0  0  0  0  0  0  0  0  0  0  0
   16.9914   -7.7449    0.0000 C   0  0  0  0  0  0  0  0  0  0  0  0
   17.7075   -7.3276    0.0000 C   0  0  0  0  0  0  0  0  0  0  0  0
   17.7017   -6.5009    0.0000 C   0  0  0  0  0  0  0  0  0  0  0  0
   16.9814   -6.0915    0.0000 C   0  0  0  0  0  0  0  0  0  0  0  0
   16.2653   -6.5150    0.0000 C   0  0  0  0  0  0  0  0  0  0  0  0
   16.2747   -7.3405    0.0000 C   0  0  0  0  0  0  0  0  0  0  0  0
  8 12  1  0
 12 13  1  0
 13 14  1  0
 10 15  1  0
  1 16  1  0
  2  3  2  0
 16 17  2  0
  3  4  1  0
 17 18  1  0
  4  7  2  0
 18 19  2  0
  6  5  2  0
 19 20  1  0
  5  2  1  0
 20 21  2  0
 21 16  1  0
  6  7  1  0
 15 22  3  0
  7  8  1  0
 22 23  1  0
  8  9  1  0
 23 24  2  0
  9  1  1  0
 24 25  1  0
  1 10  2  0
 25 26  2  0
 10  6  1  0
 26 27  1  0
  8 11  2  0
 27 28  2  0
 28 23  1  0
M  END

> <chembl_id>
CHEMBL1088694

> <chembl_pref_name>
None

$$$$

     RDKit          2D

 32 35  0  0  0  0  0  0  0  0999 V2000
    2.0491    2.4542    0.0000 N   0  0  0  0  0  0  0  0  0  0  0  0
    2.7648    2.0439    0.0000 C   0  0  0  0  0  0  0  0  0  0  0  0
    3.4780    2.4586    0.0000 C   0  0  0  0  0  0  0  0  0  0  0  0
    2.7674    1.2189    0.0000 O   0  0  0  0  0  0  0  0  0  0  0  0
    4.1879    2.0453    0.0000 C   0  0  0  0  0  0  0  0  0  0  0  0
    4.1851    3.6943    0.0000 O   0  0  0  0  0  0  0  0  0  0  0  0
    3.4678    3.2814    0.0000 C   0  0  0  0  0  0  0  0  0  0  0  0
    4.9007    3.2818    0.0000 C   0  0  0  0  0  0  0  0  0  0  0  0
    4.8972    2.4604    0.0000 C   0  0  0  0  0  0  0  0  0  0  0  0
    5.6057    2.0485    0.0000 C   0  0  0  0  0  0  0  0  0  0  0  0
    6.3182    2.4569    0.0000 C   0  0  0  0  0  0  0  0  0  0  0  0
    6.3177    3.2814    0.0000 C   0  0  0  0  0  0  0  0  0  0  0  0
    5.6086    3.6896    0.0000 C   0  0  0  0  0  0  0  0  0  0  0  0
    2.7510    3.6899    0.0000 N   0  0  0  0  0  0  0  0  0  0  0  0
   -5.8098    2.0167    0.0000 C   0  0  0  0  0  0  0  0  0  0  0  0
   -5.8109    1.1893    0.0000 C   0  0  0  0  0  0  0  0  0  0  0  0
   -5.0961    0.7765    0.0000 C   0  0  0  0  0  0  0  0  0  0  0  0
   -5.0979    2.4295    0.0000 C   0  0  0  0  0  0  0  0  0  0  0  0
   -4.3825    2.0203    0.0000 C   0  0  0  0  0  0  0  0  0  0  0  0
   -4.3791    1.1919    0.0000 C   0  0  0  0  0  0  0  0  0  0  0  0
   -3.6639    0.7828    0.0000 O   0  0  0  0  0  0  0  0  0  0  0  0
   -2.9475    1.1977    0.0000 C   0  0  0  0  0  0  0  0  0  0  0  0
   -2.9509    2.0262    0.0000 C   0  0  0  0  0  0  0  0  0  0  0  0
   -3.6707    2.4398    0.0000 C   0  0  0  0  0  0  0  0  0  0  0  0
   -2.2319    0.7872    0.0000 N   0  0  0  0  0  0  0  0  0  0  0  0
   -2.2377    2.4409    0.0000 C   0  0  0  0  0  0  0  0  0  0  0  0
   -1.5220    2.0306    0.0000 N   0  0  0  0  0  0  0  0  0  0  0  0
   -2.2403    3.2659    0.0000 O   0  0  0  0  0  0  0  0  0  0  0  0
   -0.8088    2.4453    0.0000 C   0  0  0  0  0  0  0  0  0  0  0  0
   -0.0930    2.0350    0.0000 C   0  0  0  0  0  0  0  0  0  0  0  0
    0.6202    2.4498    0.0000 C   0  0  0  0  0  0  0  0  0  0  0  0
    1.3359    2.0395    0.0000 C   0  0  0  0  0  0  0  0  0  0  0  0
 15 16  2  0
  2  4  2  0
 16 17  1  0
 17 20  2  0
  3  5  2  0
 19 18  2  0
 18 15  1  0
 19 20  1  0
  8  9  2  0
  9 10  1  0
  2  3  1  0
 10 11  2  0
  1  2  1  0
 19 24  1  0
 20 21  1  0
 21 22  1  0
 22 23  1  0
 23 24  2  0
 11 12  1  0
 22 25  2  0
  3  7  1  0
 23 26  1  0
 12 13  2  0
 26 27  1  0
 13  8  1  0
 26 28  2  0
  5  9  1  0
 27 29  1  0
  7 14  2  0
 29 30  1  0
  8  6  1  0
 30 31  1  0
  6  7  1  0
 31 32  1  0
 32  1  1  0
M  END

> <chembl_id>
CHEMBL1094694

> <chembl_pref_name>
None

$$$$

     RDKit          2D

 15 16  0  0  1  0  0  0  0  0999 V2000
   -0.2355   -0.7285    0.0000 O   0  0  0  0  0  0  0  0  0  0  0  0
   -1.9425    1.6210    0.0000 O   0  0  0  0  0  0  0  0  0  0  0  0
   -0.4904    1.3910    0.0000 N   0  0  0  0  0  0  0  0  0  0  0  0
   -1.2750    0.3111    0.0000 N   0  0  0  0  0  0  0  0  0  0  0  0
    1.6445    0.7236    0.0000 N   0  0  0  0  0  0  0  0  0  0  0  0
   -0.0055    0.7236    0.0000 C   0  0  0  0  0  0  0  0  0  0  0  0
   -0.4904    0.0561    0.0000 C   0  0  0  0  0  0  0  0  0  0  0  0
    0.4070    1.4381    0.0000 C   0  0  0  0  0  0  0  0  0  0  0  0
    0.4070    0.0091    0.0000 C   0  0  0  0  0  0  0  0  0  0  0  0
   -1.2750    1.1361    0.0000 C   0  0  0  0  0  0  0  0  0  0  0  0
    1.2320    0.0091    0.0000 C   0  0  0  0  0  0  0  0  0  0  0  0
    1.2320    1.4381    0.0000 C   0  0  0  0  0  0  0  0  0  0  0  0
   -0.0055    2.1525    0.0000 C   0  0  0  0  0  0  0  0  0  0  0  0
    1.6445   -0.7054    0.0000 C   0  0  0  0  0  0  0  0  0  0  0  0
    2.4695    0.7236    0.0000 C   0  0  0  0  0  0  0  0  0  0  0  0
  1  7  2  0
  2 10  2  0
  3  6  1  0
  3 10  1  0
  4  7  1  0
  4 10  1  0
  5 11  1  0
  5 12  1  0
  5 15  1  0
  6  7  1  0
  6  8  1  0
  6  9  1  1
  8 12  1  0
  8 13  1  0
  9 11  1  0
 11 14  1  0
M  END

> <chembl_id>
CHEMBL1400194

> <chembl_pref_name>
None

$$$$

     RDKit          2D

 21 23  0  0  0  0  0  0  0  0999 V2000
   -0.7623    1.4433    0.0000 S   0  0  0  0  0  0  0  0  0  0  0  0
   -1.1748    0.7288    0.0000 O   0  0  0  0  0  0  0  0  0  0  0  0
   -0.3498    2.1577    0.0000 O   0  0  0  0  0  0  0  0  0  0  0  0
   -5.0002    2.2683    0.0000 O   0  0  0  0  0  0  0  0  0  0  0  0
   -3.6903    1.6008    0.0000 N   0  0  0  0  0  0  0  0  0  0  0  0
   -0.0478    1.0308    0.0000 N   0  0  0  0  0  0  0  0  0  0  0  0
   -3.6903    2.9357    0.0000 N   0  0  0  0  0  0  0  0  0  0  0  0
   -1.4767    1.8558    0.0000 C   0  0  0  0  0  0  0  0  0  0  0  0
   -2.9057    1.8558    0.0000 C   0  0  0  0  0  0  0  0  0  0  0  0
   -2.9057    2.6808    0.0000 C   0  0  0  0  0  0  0  0  0  0  0  0
   -2.1912    1.4433    0.0000 C   0  0  0  0  0  0  0  0  0  0  0  0
   -1.4767    2.6808    0.0000 C   0  0  0  0  0  0  0  0  0  0  0  0
   -2.1912    3.0933    0.0000 C   0  0  0  0  0  0  0  0  0  0  0  0
   -4.1752    2.2683    0.0000 C   0  0  0  0  0  0  0  0  0  0  0  0
   -0.0478    0.2058    0.0000 C   0  0  0  0  0  0  0  0  0  0  0  0
    0.6667   -0.2067    0.0000 C   0  0  0  0  0  0  0  0  0  0  0  0
   -0.7623   -0.2067    0.0000 C   0  0  0  0  0  0  0  0  0  0  0  0
   -0.0478   -1.4442    0.0000 C   0  0  0  0  0  0  0  0  0  0  0  0
    0.6667   -1.0317    0.0000 C   0  0  0  0  0  0  0  0  0  0  0  0
   -0.7623   -1.0317    0.0000 C   0  0  0  0  0  0  0  0  0  0  0  0
   -0.0478   -2.2692    0.0000 C   0  0  0  0  0  0  0  0  0  0  0  0
  1  2  2  0
  1  3  2  0
  1  6  1  0
  1  8  1  0
  4 14  1  0
  5  9  1  0
  5 14  2  0
  6 15  1  0
  7 10  1  0
  7 14  1  0
  8 11  1  0
  8 12  2  0
  9 10  1  0
  9 11  2  0
 10 13  2  0
 12 13  1  0
 15 16  2  0
 15 17  1  0
 16 19  1  0
 17 20  2  0
 18 19  2  0
 18 20  1  0
 18 21  1  0
M  END

> <chembl_id>
CHEMBL1343694

> <chembl_pref_name>
None

$$$$

     RDKit          2D

 38 42  0  0  0  0  0  0  0  0999 V2000
   -3.1751   -0.6656    0.0000 O   0  0  0  0  0  0  0  0  0  0  0  0
   -1.7461   -0.6656    0.0000 O   0  0  0  0  0  0  0  0  0  0  0  0
   -2.4606   -4.3781    0.0000 N   0  0  0  0  0  0  0  0  0  0  0  0
   -1.7461   -3.1406    0.0000 N   0  0  0  0  0  0  0  0  0  0  0  0
   -3.1751   -3.1406    0.0000 N   0  0  0  0  0  0  0  0  0  0  0  0
   -1.7932   -4.8630    0.0000 N   0  0  0  0  0  0  0  0  0  0  0  0
   -1.0317   -1.9031    0.0000 N   0  0  0  0  0  0  0  0  0  0  0  0
    1.1117   -2.3156    0.0000 N   0  0  0  0  0  0  0  0  0  0  0  0
    0.3973   -1.0781    0.0000 N   0  0  0  0  0  0  0  0  0  0  0  0
   -0.3172   -2.3156    0.0000 N   0  0  0  0  0  0  0  0  0  0  0  0
   -2.4606   -3.5531    0.0000 C   0  0  0  0  0  0  0  0  0  0  0  0
   -1.7461   -2.3156    0.0000 C   0  0  0  0  0  0  0  0  0  0  0  0
   -2.4606   -1.9031    0.0000 C   0  0  0  0  0  0  0  0  0  0  0  0
   -3.1280   -4.8630    0.0000 C   0  0  0  0  0  0  0  0  0  0  0  0
   -3.1751   -2.3156    0.0000 C   0  0  0  0  0  0  0  0  0  0  0  0
    0.3973   -1.9031    0.0000 C   0  0  0  0  0  0  0  0  0  0  0  0
    1.8262   -1.9031    0.0000 C   0  0  0  0  0  0  0  0  0  0  0  0
    1.1117   -0.6656    0.0000 C   0  0  0  0  0  0  0  0  0  0  0  0
   -2.4606   -1.0781    0.0000 C   0  0  0  0  0  0  0  0  0  0  0  0
   -2.0481   -5.6476    0.0000 C   0  0  0  0  0  0  0  0  0  0  0  0
   -2.8731   -5.6476    0.0000 C   0  0  0  0  0  0  0  0  0  0  0  0
    1.8262   -1.0781    0.0000 C   0  0  0  0  0  0  0  0  0  0  0  0
    2.5407   -2.3156    0.0000 C   0  0  0  0  0  0  0  0  0  0  0  0
    1.1117    0.1594    0.0000 C   0  0  0  0  0  0  0  0  0  0  0  0
   -3.9127   -4.6080    0.0000 C   0  0  0  0  0  0  0  0  0  0  0  0
    3.2552   -1.9031    0.0000 C   0  0  0  0  0  0  0  0  0  0  0  0
    2.5407   -3.1406    0.0000 C   0  0  0  0  0  0  0  0  0  0  0  0
    0.3973    0.5719    0.0000 C   0  0  0  0  0  0  0  0  0  0  0  0
    1.8262    0.5719    0.0000 C   0  0  0  0  0  0  0  0  0  0  0  0
   -1.5632   -6.3150    0.0000 C   0  0  0  0  0  0  0  0  0  0  0  0
    3.9696   -2.3156    0.0000 C   0  0  0  0  0  0  0  0  0  0  0  0
    3.2552   -3.5531    0.0000 C   0  0  0  0  0  0  0  0  0  0  0  0
    0.3973    1.3969    0.0000 C   0  0  0  0  0  0  0  0  0  0  0  0
    1.8262    1.3969    0.0000 C   0  0  0  0  0  0  0  0  0  0  0  0
   -3.8896   -1.0781    0.0000 C   0  0  0  0  0  0  0  0  0  0  0  0
    3.9696   -3.1406    0.0000 C   0  0  0  0  0  0  0  0  0  0  0  0
    1.1117    1.8094    0.0000 C   0  0  0  0  0  0  0  0  0  0  0  0
   -4.6040   -0.6656    0.0000 C   0  0  0  0  0  0  0  0  0  0  0  0
  1 19  1  0
  1 35  1  0
  2 19  2  0
  3  6  1  0
  3 11  1  0
  3 14  1  0
  4 11  1  0
  4 12  2  0
  5 11  2  0
  5 15  1  0
  6 20  2  0
  7 10  1  0
  7 12  1  0
  8 16  1  0
  8 17  2  0
  9 16  2  0
  9 18  1  0
 10 16  1  0
 12 13  1  0
 13 15  2  0
 13 19  1  0
 14 21  2  0
 14 25  1  0
 17 22  1  0
 17 23  1  0
 18 22  2  0
 18 24  1  0
 20 21  1  0
 20 30  1  0
 23 26  2  0
 23 27  1  0
 24 28  2  0
 24 29  1  0
 26 31  1  0
 27 32  2  0
 28 33  1  0
 29 34  2  0
 31 36  2  0
 32 36  1  0
 33 37  2  0
 34 37  1  0
 35 38  1  0
M  END

> <chembl_id>
CHEMBL1340698

> <chembl_pref_name>
None

$$$$

     RDKit          2D

 55 59  0  0  0  0  0  0  0  0999 V2000
   22.8114  -12.0328    0.0000 C   0  0  0  0  0  0  0  0  0  0  0  0
   17.1000  -12.0517    0.0000 C   0  0  0  0  0  0  0  0  0  0  0  0
   17.0986  -12.8795    0.0000 C   0  0  0  0  0  0  0  0  0  0  0  0
   17.8132  -13.2902    0.0000 C   0  0  0  0  0  0  0  0  0  0  0  0
   18.5296  -12.8789    0.0000 C   0  0  0  0  0  0  0  0  0  0  0  0
   18.5263  -12.0475    0.0000 C   0  0  0  0  0  0  0  0  0  0  0  0
   17.8112  -11.6411    0.0000 C   0  0  0  0  0  0  0  0  0  0  0  0
   17.8083  -10.8160    0.0000 C   0  0  0  0  0  0  0  0  0  0  0  0
   18.5216  -10.4011    0.0000 N   0  0  0  0  0  0  0  0  0  0  0  0
   17.0924  -10.4059    0.0000 O   0  0  0  0  0  0  0  0  0  0  0  0
   19.2445  -13.2911    0.0000 O   0  0  0  0  0  0  0  0  0  0  0  0
   19.9589  -12.8780    0.0000 C   0  0  0  0  0  0  0  0  0  0  0  0
   20.6737  -13.2902    0.0000 C   0  0  0  0  0  0  0  0  0  0  0  0
   20.6752  -14.1109    0.0000 O   0  0  0  0  0  0  0  0  0  0  0  0
   21.3888  -12.8727    0.0000 O   0  0  0  0  0  0  0  0  0  0  0  0
   19.2376  -10.8112    0.0000 C   0  0  0  0  0  0  0  0  0  0  0  0
   19.9507  -10.3962    0.0000 C   0  0  0  0  0  0  0  0  0  0  0  0
   20.6667  -10.8064    0.0000 C   0  0  0  0  0  0  0  0  0  0  0  0
   21.3800  -10.3914    0.0000 C   0  0  0  0  0  0  0  0  0  0  0  0
   22.0960  -10.8015    0.0000 C   0  0  0  0  0  0  0  0  0  0  0  0
   21.3772   -9.5662    0.0000 N   0  0  0  0  0  0  0  0  0  0  0  0
   22.0987  -11.6266    0.0000 N   0  0  0  0  0  0  0  0  0  0  0  0
   22.8091  -10.3866    0.0000 O   0  0  0  0  0  0  0  0  0  0  0  0
   22.8174  -12.8619    0.0000 C   0  0  0  0  0  0  0  0  0  0  0  0
   22.0903   -9.1513    0.0000 C   0  0  0  0  0  0  0  0  0  0  0  0
   22.0876   -8.3261    0.0000 C   0  0  0  0  0  0  0  0  0  0  0  0
   22.8062   -9.5613    0.0000 O   0  0  0  0  0  0  0  0  0  0  0  0
   22.8009   -7.9164    0.0000 C   0  0  0  0  0  0  0  0  0  0  0  0
   21.3724   -7.9235    0.0000 C   0  0  0  0  0  0  0  0  0  0  0  0
   21.3654   -7.1037    0.0000 C   0  0  0  0  0  0  0  0  0  0  0  0
   20.6509   -6.7011    0.0000 C   0  0  0  0  0  0  0  0  0  0  0  0
   19.9437   -7.1192    0.0000 C   0  0  0  0  0  0  0  0  0  0  0  0
   19.9554   -7.9441    0.0000 C   0  0  0  0  0  0  0  0  0  0  0  0
   20.6702   -8.3430    0.0000 C   0  0  0  0  0  0  0  0  0  0  0  0
   19.2243   -6.7153    0.0000 N   0  0  0  0  0  0  0  0  0  0  0  0
   19.2128   -5.8905    0.0000 O   0  0  0  0  0  0  0  0  0  0  0  0
   18.5133   -7.1368    0.0000 O   0  0  0  0  0  0  0  0  0  0  0  0
   23.5350  -13.2694    0.0000 C   0  0  0  0  0  0  0  0  0  0  0  0
   24.9656  -14.0842    0.0000 C   0  0  0  0  0  0  0  0  0  0  0  0
   24.9570  -13.2549    0.0000 C   0  0  0  0  0  0  0  0  0  0  0  0
   24.2397  -12.8512    0.0000 C   0  0  0  0  0  0  0  0  0  0  0  0
   24.2531  -14.5018    0.0000 C   0  0  0  0  0  0  0  0  0  0  0  0
   23.5386  -14.0972    0.0000 C   0  0  0  0  0  0  0  0  0  0  0  0
   22.9329  -14.6515    0.0000 O   0  0  0  0  0  0  0  0  0  0  0  0
   24.0887  -15.3064    0.0000 C   0  0  0  0  0  0  0  0  0  0  0  0
   23.2742  -15.3968    0.0000 C   0  0  0  0  0  0  0  0  0  0  0  0
   22.9468  -16.1461    0.0000 C   0  0  0  0  0  0  0  0  0  0  0  0
   23.4329  -16.8057    0.0000 C   0  0  0  0  0  0  0  0  0  0  0  0
   24.2502  -16.7110    0.0000 C   0  0  0  0  0  0  0  0  0  0  0  0
   24.5738  -15.9614    0.0000 C   0  0  0  0  0  0  0  0  0  0  0  0
   22.1267  -16.2380    0.0000 C   0  0  0  0  0  0  0  0  0  0  0  0
   21.7964  -16.9942    0.0000 C   0  0  0  0  0  0  0  0  0  0  0  0
   22.2860  -17.6583    0.0000 C   0  0  0  0  0  0  0  0  0  0  0  0
   21.9556  -18.4144    0.0000 N   0  0  0  0  0  0  0  0  0  0  0  0
   23.1060  -17.5664    0.0000 O   0  0  0  0  0  0  0  0  0  0  0  0
  2  3  2  0
 26 28  1  0
 13 14  1  0
 29 26  1  0
 13 15  2  0
 29 30  2  0
  7  8  1  0
 30 31  1  0
  9 16  1  0
 31 32  2  0
  4  5  2  0
 32 33  1  0
 16 17  1  0
 33 34  2  0
 34 29  1  0
  8  9  1  0
 32 35  1  0
 17 18  1  0
 35 36  1  0
 35 37  2  0
 19 18  1  6
 24 38  1  0
 38 43  2  0
  8 10  2  0
 42 39  2  0
 19 20  1  0
 39 40  1  0
  5  6  1  0
 40 41  2  0
 41 38  1  0
 42 43  1  0
 19 21  1  0
  5 11  1  0
 20 22  1  0
 43 44  1  0
 44 46  1  0
 45 42  1  0
  3  4  1  0
 20 23  2  0
 45 46  2  0
 22  1  1  0
 46 47  1  0
 11 12  1  0
 47 48  2  0
  1 24  1  0
 48 49  1  0
  6  7  2  0
 49 50  2  0
 50 45  1  0
 21 25  1  0
 47 51  1  0
 12 13  1  0
 51 52  1  0
 25 26  1  0
 52 53  1  0
  7  2  1  0
 53 54  1  0
 25 27  2  0
 53 55  2  0
M  CHG  2  35   1  36  -1
M  END

> <chembl_id>
CHEMBL1094069

> <chembl_pref_name>
None

$$$$

     RDKit          2D

 28 29  0  0  0  0  0  0  0  0999 V2000
    4.3680   -0.5399    0.0000 S   0  0  0  0  0  0  0  0  0  0  0  0
    2.3055   -1.2544    0.0000 F   0  0  0  0  0  0  0  0  0  0  0  0
    3.4325   -0.9524    0.0000 F   0  0  0  0  0  0  0  0  0  0  0  0
    2.0036   -0.1274    0.0000 F   0  0  0  0  0  0  0  0  0  0  0  0
    4.7805   -1.2544    0.0000 O   0  0  0  0  0  0  0  0  0  0  0  0
    3.8160   -1.1530    0.0000 O   0  0  0  0  0  0  0  0  0  0  0  0
    7.1789    1.1825    0.0000 O   0  0  0  0  0  0  0  0  0  0  0  0
    5.0825   -0.1274    0.0000 N   0  0  0  0  0  0  0  0  0  0  0  0
    7.2259   -0.5399    0.0000 N   0  0  0  0  0  0  0  0  0  0  0  0
    3.9555    0.1745    0.0000 C   0  0  0  0  0  0  0  0  0  0  0  0
    3.1305    0.1745    0.0000 C   0  0  0  0  0  0  0  0  0  0  0  0
    2.7180   -0.5399    0.0000 C   0  0  0  0  0  0  0  0  0  0  0  0
    4.3680    0.8890    0.0000 C   0  0  0  0  0  0  0  0  0  0  0  0
    6.5115   -0.1274    0.0000 C   0  0  0  0  0  0  0  0  0  0  0  0
    2.7180    0.8890    0.0000 C   0  0  0  0  0  0  0  0  0  0  0  0
    5.7970   -0.5399    0.0000 C   0  0  0  0  0  0  0  0  0  0  0  0
    6.5115    0.6976    0.0000 C   0  0  0  0  0  0  0  0  0  0  0  0
    3.9555    1.6035    0.0000 C   0  0  0  0  0  0  0  0  0  0  0  0
    3.1305    1.6035    0.0000 C   0  0  0  0  0  0  0  0  0  0  0  0
    5.8440    1.1825    0.0000 C   0  0  0  0  0  0  0  0  0  0  0  0
    7.9404   -0.1274    0.0000 C   0  0  0  0  0  0  0  0  0  0  0  0
    7.2259   -1.3649    0.0000 C   0  0  0  0  0  0  0  0  0  0  0  0
    6.9240    1.9671    0.0000 C   0  0  0  0  0  0  0  0  0  0  0  0
    6.0990    1.9671    0.0000 C   0  0  0  0  0  0  0  0  0  0  0  0
    8.6549   -0.5399    0.0000 C   0  0  0  0  0  0  0  0  0  0  0  0
    7.9404   -1.7774    0.0000 C   0  0  0  0  0  0  0  0  0  0  0  0
    8.6549   -1.3649    0.0000 C   0  0  0  0  0  0  0  0  0  0  0  0
    0.0000    0.0000    0.0000 Cl  0  0  0  0  0  0  0  0  0  0  0  0
  1  5  2  0
  1  6  2  0
  1  8  1  0
  1 10  1  0
  2 12  1  0
  3 12  1  0
  4 12  1  0
  7 17  1  0
  7 23  1  0
  8 16  1  0
  9 14  1  0
  9 21  1  0
  9 22  1  0
 10 11  1  0
 10 13  2  0
 11 12  1  0
 11 15  2  0
 13 18  1  0
 14 16  1  0
 14 17  1  0
 15 19  1  0
 17 20  2  0
 18 19  2  0
 20 24  1  0
 21 25  1  0
 22 26  1  0
 23 24  2  0
 25 27  1  0
 26 27  1  0
M  END

> <chembl_id>
CHEMBL1707253

> <chembl_pref_name>
None

$$$$

     RDKit          2D

 26 29  0  0  0  0  0  0  0  0999 V2000
    4.1573   -8.1097    0.0000 C   0  0  0  0  0  0  0  0  0  0  0  0
    5.1955   -7.5079    0.0000 N   0  0  0  0  0  0  0  0  0  0  0  0
    6.4963   -8.2565    0.0000 C   0  0  0  0  0  0  0  0  0  0  0  0
    6.5015   -9.7565    0.0000 C   0  0  0  0  0  0  0  0  0  0  0  0
    7.8031  -10.5020    0.0000 C   0  0  0  0  0  0  0  0  0  0  0  0
    9.0996   -9.7476    0.0000 C   0  0  0  0  0  0  0  0  0  0  0  0
    9.0944   -8.2476    0.0000 C   0  0  0  0  0  0  0  0  0  0  0  0
    7.7928   -7.5020    0.0000 C   0  0  0  0  0  0  0  0  0  0  0  0
    5.1924   -6.0070    0.0000 C   0  0  0  0  0  0  0  0  0  0  0  0
    3.8934   -5.2570    0.0000 C   0  0  0  0  0  0  0  0  0  0  0  0
    3.8933   -3.7570    0.0000 C   0  0  0  0  0  0  0  0  0  0  0  0
    5.1925   -3.0070    0.0000 N   0  0  0  0  0  0  0  0  0  0  0  0
    6.4915   -3.7571    0.0000 C   0  0  0  0  0  0  0  0  0  0  0  0
    6.4915   -5.2571    0.0000 N   0  0  0  0  0  0  0  0  0  0  0  0
    2.5951   -3.0039    0.0000 C   0  0  0  0  0  0  0  0  0  0  0  0
    1.5548   -3.6021    0.0000 O   0  0  0  0  0  0  0  0  0  0  0  0
    2.5973   -1.5031    0.0000 N   0  0  0  0  0  0  0  0  0  0  0  0
    1.2990   -0.7500    0.0000 C   0  0  0  0  0  0  0  0  0  0  0  0
    1.2990    0.7500    0.0000 C   0  0  0  0  0  0  0  0  0  0  0  0
    0.0000    1.5000    0.0000 C   0  0  0  0  0  0  0  0  0  0  0  0
   -1.2990    0.7500    0.0000 C   0  0  0  0  0  0  0  0  0  0  0  0
   -2.7248    1.2135    0.0000 N   0  0  0  0  0  0  0  0  0  0  0  0
   -3.6065    0.0000    0.0000 N   0  0  0  0  0  0  0  0  0  0  0  0
   -2.7248   -1.2135    0.0000 C   0  0  0  0  0  0  0  0  0  0  0  0
   -1.2990   -0.7500    0.0000 C   0  0  0  0  0  0  0  0  0  0  0  0
    0.0000   -1.5000    0.0000 C   0  0  0  0  0  0  0  0  0  0  0  0
  1  2  1  0
  2  3  1  0
  3  4  1  0
  4  5  1  0
  5  6  1  0
  6  7  1  0
  7  8  1  0
  8  3  1  0
  2  9  1  0
  9 10  2  0
 10 11  1  0
 11 12  2  0
 12 13  1  0
 13 14  2  0
 14  9  1  0
 11 15  1  0
 15 16  2  0
 15 17  1  0
 17 18  1  0
 18 19  2  0
 19 20  1  0
 20 21  2  0
 21 22  1  0
 22 23  1  0
 23 24  2  0
 24 25  1  0
 25 21  1  0
 25 26  2  0
 26 18  1  0
M  END

> <chembl_id>
CHEMBL1080684

> <chembl_pref_name>
None

$$$$

     RDKit          2D

 28 29  0  0  0  0  0  0  0  0999 V2000
   -7.1714   -1.8070    0.0000 Cl  0  0  0  0  0  0  0  0  0  0  0  0
   -7.1714    2.3180    0.0000 F   0  0  0  0  0  0  0  0  0  0  0  0
   -7.9964    1.4930    0.0000 F   0  0  0  0  0  0  0  0  0  0  0  0
   -6.3464    1.4930    0.0000 F   0  0  0  0  0  0  0  0  0  0  0  0
   -3.5991   -0.5695    0.0000 O   0  0  0  0  0  0  0  0  0  0  0  0
   -5.0280    0.2555    0.0000 O   0  0  0  0  0  0  0  0  0  0  0  0
    1.4022    0.6680    0.0000 O   0  0  0  0  0  0  0  0  0  0  0  0
   -2.8846   -1.8070    0.0000 O   0  0  0  0  0  0  0  0  0  0  0  0
   -5.7425   -0.9820    0.0000 N   0  0  0  0  0  0  0  0  0  0  0  0
   -7.1714    0.6680    0.0000 C   0  0  0  0  0  0  0  0  0  0  0  0
   -6.4569   -0.5695    0.0000 C   0  0  0  0  0  0  0  0  0  0  0  0
   -7.1714    1.4930    0.0000 C   0  0  0  0  0  0  0  0  0  0  0  0
   -6.4569    0.2555    0.0000 C   0  0  0  0  0  0  0  0  0  0  0  0
   -7.1714   -0.9820    0.0000 C   0  0  0  0  0  0  0  0  0  0  0  0
   -7.8859    0.2555    0.0000 C   0  0  0  0  0  0  0  0  0  0  0  0
   -7.8859   -0.5695    0.0000 C   0  0  0  0  0  0  0  0  0  0  0  0
   -5.0280   -0.5695    0.0000 C   0  0  0  0  0  0  0  0  0  0  0  0
   -4.3135   -0.9820    0.0000 C   0  0  0  0  0  0  0  0  0  0  0  0
   -0.7412   -0.5695    0.0000 C   0  0  0  0  0  0  0  0  0  0  0  0
   -2.8846   -0.9820    0.0000 C   0  0  0  0  0  0  0  0  0  0  0  0
    0.6878    0.2555    0.0000 C   0  0  0  0  0  0  0  0  0  0  0  0
   -1.4556   -0.9820    0.0000 C   0  0  0  0  0  0  0  0  0  0  0  0
   -0.7412    0.2555    0.0000 C   0  0  0  0  0  0  0  0  0  0  0  0
   -0.0267   -0.9820    0.0000 C   0  0  0  0  0  0  0  0  0  0  0  0
   -2.1701   -0.5695    0.0000 C   0  0  0  0  0  0  0  0  0  0  0  0
   -0.0267    0.6680    0.0000 C   0  0  0  0  0  0  0  0  0  0  0  0
    0.6878   -0.5695    0.0000 C   0  0  0  0  0  0  0  0  0  0  0  0
    2.1167    0.2555    0.0000 C   0  0  0  0  0  0  0  0  0  0  0  0
  1 14  1  0
  2 12  1  0
  3 12  1  0
  4 12  1  0
  5 18  1  0
  5 20  1  0
  6 17  2  0
  7 21  1  0
  7 28  1  0
  8 20  2  0
  9 11  1  0
  9 17  1  0
 10 12  1  0
 10 13  1  0
 10 15  2  0
 11 13  2  0
 11 14  1  0
 14 16  2  0
 15 16  1  0
 17 18  1  0
 19 22  1  0
 19 23  2  0
 19 24  1  0
 20 25  1  0
 21 26  2  0
 21 27  1  0
 22 25  2  0
 23 26  1  0
 24 27  2  0
M  END

> <chembl_id>
CHEMBL1440624

> <chembl_pref_name>
None

$$$$

     RDKit          2D

 33 34  0  0  1  0  0  0  0  0999 V2000
    6.0542    0.4625    0.0000 C   0  0  0  0  0  0  0  0  0  0  0  0
   -2.4958   -2.0917    0.0000 C   0  0  0  0  0  0  0  0  0  0  0  0
   -3.2083   -2.5042    0.0000 C   0  0  0  0  0  0  0  0  0  0  0  0
    5.3292    0.8708    0.0000 N   0  0  0  0  0  0  0  0  0  0  0  0
    0.3375    0.4083    0.0000 C   0  0  0  0  0  0  0  0  0  0  0  0
   -0.3833    0.8125    0.0000 C   0  0  0  0  0  0  0  0  0  0  0  0
    1.0500    0.8250    0.0000 N   0  0  0  0  0  0  0  0  0  0  0  0
    1.7667    0.4208    0.0000 C   0  0  0  0  0  0  0  0  0  0  0  0
    3.9042    0.8583    0.0000 C   0  0  0  0  0  0  0  0  0  0  0  0
    6.0625   -0.3625    0.0000 N   0  0  0  0  0  0  0  0  0  0  0  0
    4.6250    0.4458    0.0000 C   0  0  0  0  0  0  0  0  0  0  0  0
    3.1917    0.4333    0.0000 N   0  0  0  0  0  0  0  0  0  0  0  0
    0.3417   -0.4167    0.0000 C   0  0  0  0  0  0  0  0  0  0  0  0
   -0.3875    1.6375    0.0000 O   0  0  0  0  0  0  0  0  0  0  0  0
    1.7750   -0.4042    0.0000 O   0  0  0  0  0  0  0  0  0  0  0  0
    3.9000    1.6833    0.0000 O   0  0  0  0  0  0  0  0  0  0  0  0
   -1.7833   -1.6667    0.0000 C   0  0  0  0  0  0  0  0  0  0  0  0
    6.7625    0.8833    0.0000 N   0  0  0  0  0  0  0  0  0  0  0  0
    2.4792    0.8375    0.0000 C   0  0  0  0  0  0  0  0  0  0  0  0
   -3.9208   -2.9250    0.0000 C   0  0  0  0  0  0  0  0  0  0  0  0
   -0.3625   -0.8375    0.0000 C   0  0  0  0  0  0  0  0  0  0  0  0
   -1.0958    0.3958    0.0000 O   0  0  0  0  0  0  0  0  0  0  0  0
   -1.7958   -0.8500    0.0000 C   0  0  0  0  0  0  0  0  0  0  0  0
   -1.0708   -2.0792    0.0000 C   0  0  0  0  0  0  0  0  0  0  0  0
   -0.3583   -1.6625    0.0000 C   0  0  0  0  0  0  0  0  0  0  0  0
   -1.0875   -0.4292    0.0000 C   0  0  0  0  0  0  0  0  0  0  0  0
    5.3250    1.6958    0.0000 C   0  0  0  0  0  0  0  0  0  0  0  0
   -3.9208   -3.7542    0.0000 C   0  0  0  0  0  0  0  0  0  0  0  0
   -4.6333   -2.5125    0.0000 C   0  0  0  0  0  0  0  0  0  0  0  0
   -1.8083    0.8000    0.0000 C   0  0  0  0  0  0  0  0  0  0  0  0
   -5.3458   -2.9250    0.0000 C   0  0  0  0  0  0  0  0  0  0  0  0
   -4.6333   -4.1667    0.0000 C   0  0  0  0  0  0  0  0  0  0  0  0
   -5.3458   -3.7542    0.0000 C   0  0  0  0  0  0  0  0  0  0  0  0
  2 17  1  0
  3  2  3  0
  4  1  1  0
  5  7  1  0
  6  5  1  0
  7  8  1  0
  8 19  1  0
  9 11  1  0
 10  1  2  0
 11  4  1  0
 12  9  1  0
  5 13  1  1
 14  6  2  0
 15  8  2  0
 16  9  2  0
 17 23  1  0
 18  1  1  0
 19 12  1  0
 20  3  1  0
 21 13  1  0
 22  6  1  0
 23 26  2  0
 24 25  1  0
 25 21  2  0
 26 21  1  0
 27  4  1  0
 28 20  1  0
 29 20  2  0
 30 22  1  0
 31 29  1  0
 32 28  2  0
 33 31  2  0
 24 17  2  0
 32 33  1  0
M  END

> <chembl_id>
CHEMBL104059

> <chembl_pref_name>
None

$$$$

     RDKit          2D

 26 26  0  0  0  0  0  0  0  0999 V2000
    7.6296    0.7145    0.0000 O   0  0  0  0  0  0  0  0  0  0  0  0
    5.9796   -0.7145    0.0000 O   0  0  0  0  0  0  0  0  0  0  0  0
    7.6296   -0.7145    0.0000 O   0  0  0  0  0  0  0  0  0  0  0  0
    5.9796    0.7145    0.0000 O   0  0  0  0  0  0  0  0  0  0  0  0
    7.2171    0.0000    0.0000 C   0  0  0  0  0  0  0  0  0  0  0  0
    6.3921    0.0000    0.0000 C   0  0  0  0  0  0  0  0  0  0  0  0
    3.1437    0.3300    0.0000 O   0  0  0  0  0  0  0  0  0  0  0  0
   -0.4287   -0.9075    0.0000 O   0  0  0  0  0  0  0  0  0  0  0  0
   -4.0010    0.3300    0.0000 O   0  0  0  0  0  0  0  0  0  0  0  0
   -3.2866    1.5675    0.0000 O   0  0  0  0  0  0  0  0  0  0  0  0
    1.7147   -0.4950    0.0000 N   0  0  0  0  0  0  0  0  0  0  0  0
   -3.2866    0.7425    0.0000 N   0  0  0  0  0  0  0  0  0  0  0  0
   -1.1432   -0.4950    0.0000 C   0  0  0  0  0  0  0  0  0  0  0  0
   -2.5721    0.3300    0.0000 C   0  0  0  0  0  0  0  0  0  0  0  0
    3.1437   -0.4950    0.0000 C   0  0  0  0  0  0  0  0  0  0  0  0
    2.4292    0.7425    0.0000 C   0  0  0  0  0  0  0  0  0  0  0  0
    2.4292   -0.9075    0.0000 C   0  0  0  0  0  0  0  0  0  0  0  0
    1.7147    0.3300    0.0000 C   0  0  0  0  0  0  0  0  0  0  0  0
    1.0003   -0.9075    0.0000 C   0  0  0  0  0  0  0  0  0  0  0  0
   -1.8576   -0.9075    0.0000 C   0  0  0  0  0  0  0  0  0  0  0  0
   -1.1432    0.3300    0.0000 C   0  0  0  0  0  0  0  0  0  0  0  0
   -2.5721   -0.4950    0.0000 C   0  0  0  0  0  0  0  0  0  0  0  0
   -1.8576    0.7425    0.0000 C   0  0  0  0  0  0  0  0  0  0  0  0
    0.2858   -0.4950    0.0000 C   0  0  0  0  0  0  0  0  0  0  0  0
    3.8581   -0.9075    0.0000 C   0  0  0  0  0  0  0  0  0  0  0  0
    2.4292    1.5675    0.0000 C   0  0  0  0  0  0  0  0  0  0  0  0
  1  5  2  0
  2  6  2  0
  3  5  1  0
  4  6  1  0
  5  6  1  0
  7 15  1  0
  7 16  1  0
  8 13  1  0
  8 24  1  0
  9 12  1  0
 10 12  2  0
 11 17  1  0
 11 18  1  0
 11 19  1  0
 12 14  1  0
 13 20  2  0
 13 21  1  0
 14 22  2  0
 14 23  1  0
 15 17  1  0
 15 25  1  0
 16 18  1  0
 16 26  1  0
 19 24  1  0
 20 22  1  0
 21 23  2  0
M  CHG  2   9  -1  12   1
M  END

> <chembl_id>
CHEMBL1406949

> <chembl_pref_name>
None

$$$$

     RDKit          2D

 30 34  0  0  0  0  0  0  0  0999 V2000
   -1.9120  -19.6246    0.0000 C   0  0  0  0  0  0  0  0  0  0  0  0
   -1.1977  -19.2122    0.0000 N   0  0  0  0  0  0  0  0  0  0  0  0
   -0.4835  -19.6246    0.0000 C   0  0  0  0  0  0  0  0  0  0  0  0
   -0.4798  -20.4510    0.0000 O   0  0  0  0  0  0  0  0  0  0  0  0
    0.2345  -19.2138    0.0000 O   0  0  0  0  0  0  0  0  0  0  0  0
    0.9472  -19.6290    0.0000 C   0  0  0  0  0  0  0  0  0  0  0  0
    0.9396  -20.4546    0.0000 C   0  0  0  0  0  0  0  0  0  0  0  0
    1.6514  -20.8697    0.0000 C   0  0  0  0  0  0  0  0  0  0  0  0
    1.6565  -19.2196    0.0000 C   0  0  0  0  0  0  0  0  0  0  0  0
    2.3689  -19.6310    0.0000 C   0  0  0  0  0  0  0  0  0  0  0  0
    2.3709  -20.4576    0.0000 C   0  0  0  0  0  0  0  0  0  0  0  0
    3.1577  -20.7112    0.0000 N   0  0  0  0  0  0  0  0  0  0  0  0
    3.1545  -19.3737    0.0000 C   0  0  0  0  0  0  0  0  0  0  0  0
    3.6413  -20.0401    0.0000 C   0  0  0  0  0  0  0  0  0  0  0  0
    4.4255  -19.7830    0.0000 N   0  0  0  0  0  0  0  0  0  0  0  0
    4.4234  -18.9577    0.0000 C   0  0  0  0  0  0  0  0  0  0  0  0
    3.6378  -18.7049    0.0000 C   0  0  0  0  0  0  0  0  0  0  0  0
    2.5661  -18.7831    0.0000 C   0  0  0  0  0  0  0  0  0  0  0  0
    4.2240  -20.6201    0.0000 H   0  0  0  0  0  0  0  0  0  0  0  0
    3.4150  -21.4948    0.0000 C   0  0  0  0  0  0  0  0  0  0  0  0
    5.0940  -20.2660    0.0000 C   0  0  0  0  0  0  0  0  0  0  0  0
   -3.3401  -20.4466    0.0000 C   0  0  0  0  0  0  0  0  0  0  0  0
   -2.6208  -20.8589    0.0000 C   0  0  0  0  0  0  0  0  0  0  0  0
   -1.9099  -20.4448    0.0000 C   0  0  0  0  0  0  0  0  0  0  0  0
   -3.3397  -19.6209    0.0000 C   0  0  0  0  0  0  0  0  0  0  0  0
   -2.6280  -19.2117    0.0000 C   0  0  0  0  0  0  0  0  0  0  0  0
   -2.6276  -18.3925    0.0000 C   0  0  0  0  0  0  0  0  0  0  0  0
   -3.3381  -17.9817    0.0000 C   0  0  0  0  0  0  0  0  0  0  0  0
   -4.0505  -18.3960    0.0000 C   0  0  0  0  0  0  0  0  0  0  0  0
   -4.0474  -19.2138    0.0000 C   0  0  0  0  0  0  0  0  0  0  0  0
  7  8  1  0
  8 11  2  0
 14 15  1  0
 15 16  1  0
 16 17  1  0
 17 13  1  0
  3  4  2  0
 13 18  1  1
 10  9  2  0
 14 19  1  1
  9  6  1  0
 12 20  1  0
 10 11  1  0
 15 21  1  0
  1 26  2  0
  3  5  1  0
 25 22  2  0
  2  3  1  0
 22 23  1  0
  5  6  1  0
 23 24  2  0
 24  1  1  0
 11 12  1  0
 12 14  1  0
 25 26  1  0
 13 10  1  0
 26 27  1  0
 13 14  1  0
 27 28  2  0
  1  2  1  0
 28 29  1  0
  6  7  2  0
 29 30  2  0
 30 25  1  0
M  END

> <chembl_id>
CHEMBL1080691

> <chembl_pref_name>
None

$$$$

     RDKit          2D

 23 24  0  0  0  0  0  0  0  0999 V2000
   -3.0578   -1.1083    0.0000 Cl  0  0  0  0  0  0  0  0  0  0  0  0
   -5.9156   -1.1083    0.0000 Cl  0  0  0  0  0  0  0  0  0  0  0  0
   -5.9156    0.5417    0.0000 Cl  0  0  0  0  0  0  0  0  0  0  0  0
   -2.3433    0.1292    0.0000 O   0  0  0  0  0  0  0  0  0  0  0  0
   -3.0578    1.3667    0.0000 O   0  0  0  0  0  0  0  0  0  0  0  0
   -0.9143   -0.6958    0.0000 O   0  0  0  0  0  0  0  0  0  0  0  0
   -4.4867    0.5417    0.0000 N   0  0  0  0  0  0  0  0  0  0  0  0
   -4.4867   -1.9333    0.0000 N   0  0  0  0  0  0  0  0  0  0  0  0
   -0.1999    0.5417    0.0000 N   0  0  0  0  0  0  0  0  0  0  0  0
   -3.7722    0.1292    0.0000 C   0  0  0  0  0  0  0  0  0  0  0  0
   -3.7722   -0.6958    0.0000 C   0  0  0  0  0  0  0  0  0  0  0  0
   -4.4867   -1.1083    0.0000 C   0  0  0  0  0  0  0  0  0  0  0  0
   -5.2012   -0.6958    0.0000 C   0  0  0  0  0  0  0  0  0  0  0  0
   -5.2012    0.1292    0.0000 C   0  0  0  0  0  0  0  0  0  0  0  0
   -3.0578    0.5417    0.0000 C   0  0  0  0  0  0  0  0  0  0  0  0
   -1.6288    0.5417    0.0000 C   0  0  0  0  0  0  0  0  0  0  0  0
   -0.9143    0.1292    0.0000 C   0  0  0  0  0  0  0  0  0  0  0  0
    0.5146    0.1292    0.0000 C   0  0  0  0  0  0  0  0  0  0  0  0
    1.2291    0.5417    0.0000 C   0  0  0  0  0  0  0  0  0  0  0  0
    0.5146   -0.6958    0.0000 C   0  0  0  0  0  0  0  0  0  0  0  0
    1.9435    0.1292    0.0000 C   0  0  0  0  0  0  0  0  0  0  0  0
    1.2291   -1.1083    0.0000 C   0  0  0  0  0  0  0  0  0  0  0  0
    1.9435   -0.6958    0.0000 C   0  0  0  0  0  0  0  0  0  0  0  0
  1 11  1  0
  2 13  1  0
  3 14  1  0
  4 15  1  0
  4 16  1  0
  5 15  2  0
  6 17  2  0
  7 10  1  0
  7 14  2  0
  8 12  1  0
  9 17  1  0
  9 18  1  0
 10 11  2  0
 10 15  1  0
 11 12  1  0
 12 13  2  0
 13 14  1  0
 16 17  1  0
 18 19  1  0
 18 20  1  0
 19 21  1  0
 20 22  1  0
 21 23  1  0
 22 23  1  0
M  END

> <chembl_id>
CHEMBL1344694

> <chembl_pref_name>
None

$$$$

     RDKit          2D

 10 10  0  0  0  0  0  0  0  0999 V2000
    9.0111  -12.3916    0.0000 C   0  0  0  0  0  0  0  0  0  0  0  0
    9.0099  -13.2190    0.0000 N   0  0  0  0  0  0  0  0  0  0  0  0
    9.7247  -13.6319    0.0000 C   0  0  0  0  0  0  0  0  0  0  0  0
   10.4412  -13.2185    0.0000 C   0  0  0  0  0  0  0  0  0  0  0  0
   10.4383  -12.3880    0.0000 C   0  0  0  0  0  0  0  0  0  0  0  0
    9.7229  -11.9789    0.0000 C   0  0  0  0  0  0  0  0  0  0  0  0
   11.1512  -11.9728    0.0000 C   0  0  0  0  0  0  0  0  0  0  0  0
   11.8672  -12.3826    0.0000 N   0  0  0  0  0  0  0  0  0  0  0  0
   11.1481  -11.1478    0.0000 O   0  0  0  0  0  0  0  0  0  0  0  0
   11.8704  -13.2076    0.0000 N   0  0  0  0  0  0  0  0  0  0  0  0
  2  3  1  0
  5  6  2  0
  6  1  1  0
  1  2  2  0
  5  7  1  0
  3  4  2  0
  7  8  1  0
  7  9  2  0
  4  5  1  0
  8 10  1  0
M  ISO  1   7  14
M  END

> <chembl_id>
CHEMBL1091433

> <chembl_pref_name>
None

$$$$

     RDKit          2D

 34 38  0  0  0  0  0  0  0  0999 V2000
   -4.3133    2.8433    0.0000 O   0  0  0  0  0  0  0  0  0  0  0  0
   -1.9592    4.8108    0.0000 O   0  0  0  0  0  0  0  0  0  0  0  0
   -4.6939    4.2634    0.0000 N   0  0  0  0  0  0  0  0  0  0  0  0
   -4.2814    4.9778    0.0000 N   0  0  0  0  0  0  0  0  0  0  0  0
   -2.6737    3.5733    0.0000 N   0  0  0  0  0  0  0  0  0  0  0  0
    1.6131    2.7483    0.0000 N   0  0  0  0  0  0  0  0  0  0  0  0
   -3.3881    3.9858    0.0000 C   0  0  0  0  0  0  0  0  0  0  0  0
   -4.1418    3.6503    0.0000 C   0  0  0  0  0  0  0  0  0  0  0  0
   -3.4744    4.8063    0.0000 C   0  0  0  0  0  0  0  0  0  0  0  0
   -5.5143    4.1771    0.0000 C   0  0  0  0  0  0  0  0  0  0  0  0
   -1.9592    3.9858    0.0000 C   0  0  0  0  0  0  0  0  0  0  0  0
   -5.8499    3.4235    0.0000 C   0  0  0  0  0  0  0  0  0  0  0  0
   -5.9993    4.8446    0.0000 C   0  0  0  0  0  0  0  0  0  0  0  0
   -1.2447    3.5733    0.0000 C   0  0  0  0  0  0  0  0  0  0  0  0
   -4.6169    5.7315    0.0000 C   0  0  0  0  0  0  0  0  0  0  0  0
   -2.8613    5.3584    0.0000 C   0  0  0  0  0  0  0  0  0  0  0  0
    0.1842    2.7483    0.0000 C   0  0  0  0  0  0  0  0  0  0  0  0
   -0.5303    3.9858    0.0000 C   0  0  0  0  0  0  0  0  0  0  0  0
   -1.2447    2.7483    0.0000 C   0  0  0  0  0  0  0  0  0  0  0  0
    3.0421    2.7483    0.0000 C   0  0  0  0  0  0  0  0  0  0  0  0
   -6.6704    3.3372    0.0000 C   0  0  0  0  0  0  0  0  0  0  0  0
   -6.8197    4.7583    0.0000 C   0  0  0  0  0  0  0  0  0  0  0  0
    3.0421    3.5733    0.0000 C   0  0  0  0  0  0  0  0  0  0  0  0
    0.8987    2.3358    0.0000 C   0  0  0  0  0  0  0  0  0  0  0  0
    0.1842    3.5733    0.0000 C   0  0  0  0  0  0  0  0  0  0  0  0
   -0.5303    2.3358    0.0000 C   0  0  0  0  0  0  0  0  0  0  0  0
    2.3276    2.3358    0.0000 C   0  0  0  0  0  0  0  0  0  0  0  0
   -7.1553    4.0047    0.0000 C   0  0  0  0  0  0  0  0  0  0  0  0
    1.6131    3.5733    0.0000 C   0  0  0  0  0  0  0  0  0  0  0  0
    2.3276    3.9858    0.0000 C   0  0  0  0  0  0  0  0  0  0  0  0
    3.7566    2.3358    0.0000 C   0  0  0  0  0  0  0  0  0  0  0  0
    3.7566    3.9858    0.0000 C   0  0  0  0  0  0  0  0  0  0  0  0
    4.4710    2.7483    0.0000 C   0  0  0  0  0  0  0  0  0  0  0  0
    4.4710    3.5733    0.0000 C   0  0  0  0  0  0  0  0  0  0  0  0
  1  8  2  0
  2 11  2  0
  3  4  1  0
  3  8  1  0
  3 10  1  0
  4  9  1  0
  4 15  1  0
  5  7  1  0
  5 11  1  0
  6 24  1  0
  6 27  1  0
  6 29  1  0
  7  8  1  0
  7  9  2  0
  9 16  1  0
 10 12  2  0
 10 13  1  0
 11 14  1  0
 12 21  1  0
 13 22  2  0
 14 18  2  0
 14 19  1  0
 17 24  1  0
 17 25  2  0
 17 26  1  0
 18 25  1  0
 19 26  2  0
 20 23  1  0
 20 27  1  0
 20 31  2  0
 21 28  2  0
 22 28  1  0
 23 30  1  0
 23 32  2  0
 29 30  1  0
 31 33  1  0
 32 34  1  0
 33 34  2  0
M  END

> <chembl_id>
CHEMBL1400654

> <chembl_pref_name>
None

$$$$

     RDKit          2D

 28 29  0  0  0  0  0  0  0  0999 V2000
  -10.1272   -1.0493    0.0000 Cl  0  0  0  0  0  0  0  0  0  0  0  0
    1.3043    0.6007    0.0000 O   0  0  0  0  0  0  0  0  0  0  0  0
    1.3043   -1.0493    0.0000 O   0  0  0  0  0  0  0  0  0  0  0  0
   -7.2693    0.6007    0.0000 O   0  0  0  0  0  0  0  0  0  0  0  0
   -5.1259    0.1882    0.0000 O   0  0  0  0  0  0  0  0  0  0  0  0
   -5.8404    1.4257    0.0000 O   0  0  0  0  0  0  0  0  0  0  0  0
   -3.6969   -0.6368    0.0000 O   0  0  0  0  0  0  0  0  0  0  0  0
   -2.9825    0.6007    0.0000 N   0  0  0  0  0  0  0  0  0  0  0  0
    0.5899    0.1882    0.0000 C   0  0  0  0  0  0  0  0  0  0  0  0
    0.5899   -0.6368    0.0000 C   0  0  0  0  0  0  0  0  0  0  0  0
   -0.8391    0.1882    0.0000 C   0  0  0  0  0  0  0  0  0  0  0  0
   -0.1246    0.6007    0.0000 C   0  0  0  0  0  0  0  0  0  0  0  0
   -0.1246   -1.0493    0.0000 C   0  0  0  0  0  0  0  0  0  0  0  0
   -0.8391   -0.6368    0.0000 C   0  0  0  0  0  0  0  0  0  0  0  0
   -1.5535    0.6007    0.0000 C   0  0  0  0  0  0  0  0  0  0  0  0
   -7.9838    0.1882    0.0000 C   0  0  0  0  0  0  0  0  0  0  0  0
   -7.9838   -0.6368    0.0000 C   0  0  0  0  0  0  0  0  0  0  0  0
   -8.6982    0.6007    0.0000 C   0  0  0  0  0  0  0  0  0  0  0  0
   -9.4127   -0.6368    0.0000 C   0  0  0  0  0  0  0  0  0  0  0  0
   -2.2680    0.1882    0.0000 C   0  0  0  0  0  0  0  0  0  0  0  0
   -5.8404    0.6007    0.0000 C   0  0  0  0  0  0  0  0  0  0  0  0
   -8.6982   -1.0493    0.0000 C   0  0  0  0  0  0  0  0  0  0  0  0
   -9.4127    0.1882    0.0000 C   0  0  0  0  0  0  0  0  0  0  0  0
   -3.6969    0.1882    0.0000 C   0  0  0  0  0  0  0  0  0  0  0  0
   -6.5548    0.1882    0.0000 C   0  0  0  0  0  0  0  0  0  0  0  0
   -4.4114    0.6007    0.0000 C   0  0  0  0  0  0  0  0  0  0  0  0
    1.3043    1.4257    0.0000 C   0  0  0  0  0  0  0  0  0  0  0  0
    2.0188   -0.6368    0.0000 C   0  0  0  0  0  0  0  0  0  0  0  0
  1 19  1  0
  2  9  1  0
  2 27  1  0
  3 10  1  0
  3 28  1  0
  4 16  1  0
  4 25  1  0
  5 21  1  0
  5 26  1  0
  6 21  2  0
  7 24  2  0
  8 20  1  0
  8 24  1  0
  9 10  1  0
  9 12  2  0
 10 13  2  0
 11 12  1  0
 11 14  2  0
 11 15  1  0
 13 14  1  0
 15 20  1  0
 16 17  2  0
 16 18  1  0
 17 22  1  0
 18 23  2  0
 19 22  2  0
 19 23  1  0
 21 25  1  0
 24 26  1  0
M  END

> <chembl_id>
CHEMBL1406940

> <chembl_pref_name>
None

$$$$

     RDKit          2D

 27 28  0  0  0  0  0  0  0  0999 V2000
   -1.5555   -0.1453    0.0000 O   0  0  0  0  0  0  0  0  0  0  0  0
    1.3024   -0.1453    0.0000 O   0  0  0  0  0  0  0  0  0  0  0  0
   -1.5555   -2.6203    0.0000 O   0  0  0  0  0  0  0  0  0  0  0  0
   -0.1265   -2.6203    0.0000 O   0  0  0  0  0  0  0  0  0  0  0  0
    2.7314   -2.6203    0.0000 O   0  0  0  0  0  0  0  0  0  0  0  0
   -0.8410    1.0922    0.0000 N   0  0  0  0  0  0  0  0  0  0  0  0
    1.3024    0.6797    0.0000 N   0  0  0  0  0  0  0  0  0  0  0  0
   -0.1265   -0.9703    0.0000 C   0  0  0  0  0  0  0  0  0  0  0  0
   -0.8410   -1.3828    0.0000 C   0  0  0  0  0  0  0  0  0  0  0  0
    0.5880   -1.3828    0.0000 C   0  0  0  0  0  0  0  0  0  0  0  0
   -0.1265   -0.1453    0.0000 C   0  0  0  0  0  0  0  0  0  0  0  0
   -1.5555   -0.9703    0.0000 C   0  0  0  0  0  0  0  0  0  0  0  0
    1.3024   -0.9703    0.0000 C   0  0  0  0  0  0  0  0  0  0  0  0
   -0.8410    0.2672    0.0000 C   0  0  0  0  0  0  0  0  0  0  0  0
   -0.8410   -2.2078    0.0000 C   0  0  0  0  0  0  0  0  0  0  0  0
    2.0169   -1.3828    0.0000 C   0  0  0  0  0  0  0  0  0  0  0  0
    0.5880   -2.2078    0.0000 C   0  0  0  0  0  0  0  0  0  0  0  0
    2.0169   -2.2078    0.0000 C   0  0  0  0  0  0  0  0  0  0  0  0
    0.5880    0.2672    0.0000 C   0  0  0  0  0  0  0  0  0  0  0  0
    1.3024   -2.6203    0.0000 C   0  0  0  0  0  0  0  0  0  0  0  0
   -2.2699   -1.3828    0.0000 C   0  0  0  0  0  0  0  0  0  0  0  0
    2.7314   -0.9703    0.0000 C   0  0  0  0  0  0  0  0  0  0  0  0
   -2.9844   -0.9703    0.0000 C   0  0  0  0  0  0  0  0  0  0  0  0
   -1.5555   -3.4453    0.0000 C   0  0  0  0  0  0  0  0  0  0  0  0
    2.0169    0.2672    0.0000 C   0  0  0  0  0  0  0  0  0  0  0  0
    2.7314   -3.4453    0.0000 C   0  0  0  0  0  0  0  0  0  0  0  0
   -2.2699   -3.8578    0.0000 C   0  0  0  0  0  0  0  0  0  0  0  0
  1 12  1  0
  1 14  1  0
  2 13  1  0
  2 25  1  0
  3 15  1  0
  3 24  1  0
  4 15  2  0
  5 18  1  0
  5 26  1  0
  6 14  1  0
  7 19  3  0
  8  9  1  0
  8 10  1  0
  8 11  1  0
  9 12  2  0
  9 15  1  0
 10 13  1  0
 10 17  2  0
 11 14  2  0
 11 19  1  0
 12 21  1  0
 13 16  2  0
 16 18  1  0
 16 22  1  0
 17 20  1  0
 18 20  2  0
 21 23  1  0
 24 27  1  0
M  END

> <chembl_id>
CHEMBL1402694

> <chembl_pref_name>
None

$$$$

     RDKit          2D

 21 21  0  0  0  0  0  0  0  0999 V2000
    2.8019  -23.7197    0.0000 C   0  0  0  0  0  0  0  0  0  0  0  0
    0.6871  -23.1456    0.0000 N   0  0  0  0  0  0  0  0  0  0  0  0
    3.1259  -22.9693    0.0000 C   0  0  0  0  0  0  0  0  0  0  0  0
    1.4887  -23.1456    0.0000 C   0  0  0  0  0  0  0  0  0  0  0  0
    3.9445  -23.0603    0.0000 S   0  0  0  0  0  0  0  0  0  0  0  0
    1.0793  -21.8835    0.0000 N   0  0  0  0  0  0  0  0  0  0  0  0
    0.4142  -22.3724    0.0000 C   0  0  0  0  0  0  0  0  0  0  0  0
    1.9832  -23.8107    0.0000 C   0  0  0  0  0  0  0  0  0  0  0  0
    4.1151  -23.8561    0.0000 C   0  0  0  0  0  0  0  0  0  0  0  0
    3.3988  -24.2654    0.0000 C   0  0  0  0  0  0  0  0  0  0  0  0
    1.7445  -22.3610    0.0000 C   0  0  0  0  0  0  0  0  0  0  0  0
    2.7166  -22.2530    0.0000 C   0  0  0  0  0  0  0  0  0  0  0  0
    3.1430  -21.5424    0.0000 C   0  0  0  0  0  0  0  0  0  0  0  0
    1.1196  -19.5054    0.0000 C   0  0  0  0  0  0  0  0  0  0  0  0
    1.8341  -19.0929    0.0000 C   0  0  0  0  0  0  0  0  0  0  0  0
    2.5486  -19.5054    0.0000 C   0  0  0  0  0  0  0  0  0  0  0  0
    3.2631  -19.0929    0.0000 C   0  0  0  0  0  0  0  0  0  0  0  0
    3.9775  -19.5054    0.0000 O   0  0  0  0  0  0  0  0  0  0  0  0
    0.4052  -19.0929    0.0000 O   0  0  0  0  0  0  0  0  0  0  0  0
    1.1196  -20.3304    0.0000 O   0  0  0  0  0  0  0  0  0  0  0  0
    3.2631  -18.2679    0.0000 O   0  0  0  0  0  0  0  0  0  0  0  0
  2  4  1  0
  3  1  2  0
  4  8  1  0
  5  3  1  0
  6 11  1  0
  7  2  2  0
  8  1  1  0
  9 10  2  0
 10  1  1  0
 11  4  2  0
 12  3  1  0
 13 12  1  0
  9  5  1  0
  6  7  1  0
 14 15  1  0
 15 16  2  0
 16 17  1  0
 17 18  1  0
 14 19  1  0
 14 20  2  0
 17 21  2  0
M  END

> <chembl_id>
CHEMBL1744288

> <chembl_pref_name>
None

$$$$

     RDKit          2D

 23 24  0  0  0  0  0  0  0  0999 V2000
   -2.1436    4.0022    0.0000 Cl  0  0  0  0  0  0  0  0  0  0  0  0
   -1.2462    1.2402    0.0000 S   0  0  0  0  0  0  0  0  0  0  0  0
    1.8495   -0.5897    0.0000 S   0  0  0  0  0  0  0  0  0  0  0  0
   -1.4762    2.6922    0.0000 S   0  0  0  0  0  0  0  0  0  0  0  0
   -1.9136    0.7552    0.0000 O   0  0  0  0  0  0  0  0  0  0  0  0
   -0.5787    1.7251    0.0000 O   0  0  0  0  0  0  0  0  0  0  0  0
    1.1821   -1.0746    0.0000 O   0  0  0  0  0  0  0  0  0  0  0  0
    2.5170   -0.1048    0.0000 O   0  0  0  0  0  0  0  0  0  0  0  0
   -0.7613    0.5727    0.0000 N   0  0  0  0  0  0  0  0  0  0  0  0
    2.3345   -1.2571    0.0000 N   0  0  0  0  0  0  0  0  0  0  0  0
    1.3646    0.0778    0.0000 C   0  0  0  0  0  0  0  0  0  0  0  0
   -1.7311    1.9076    0.0000 C   0  0  0  0  0  0  0  0  0  0  0  0
    0.0592    0.6590    0.0000 C   0  0  0  0  0  0  0  0  0  0  0  0
    0.5441   -0.0085    0.0000 C   0  0  0  0  0  0  0  0  0  0  0  0
    1.7002    0.8314    0.0000 C   0  0  0  0  0  0  0  0  0  0  0  0
    0.3948    1.4126    0.0000 C   0  0  0  0  0  0  0  0  0  0  0  0
    1.2153    1.4989    0.0000 C   0  0  0  0  0  0  0  0  0  0  0  0
   -2.5561    1.9076    0.0000 C   0  0  0  0  0  0  0  0  0  0  0  0
   -2.1436    3.1772    0.0000 C   0  0  0  0  0  0  0  0  0  0  0  0
   -2.8110    2.6922    0.0000 C   0  0  0  0  0  0  0  0  0  0  0  0
    2.5207    0.9177    0.0000 C   0  0  0  0  0  0  0  0  0  0  0  0
    3.1549   -1.1709    0.0000 C   0  0  0  0  0  0  0  0  0  0  0  0
    1.9989   -2.0108    0.0000 C   0  0  0  0  0  0  0  0  0  0  0  0
  1 19  1  0
  2  5  2  0
  2  6  2  0
  2  9  1  0
  2 12  1  0
  3  7  2  0
  3  8  2  0
  3 10  1  0
  3 11  1  0
  4 12  1  0
  4 19  1  0
  9 13  1  0
 10 22  1  0
 10 23  1  0
 11 14  2  0
 11 15  1  0
 12 18  2  0
 13 14  1  0
 13 16  2  0
 15 17  2  0
 15 21  1  0
 16 17  1  0
 18 20  1  0
 19 20  2  0
M  END

> <chembl_id>
CHEMBL1340614

> <chembl_pref_name>
None

$$$$

     RDKit          2D

 13 12  0  0  0  0  0  0  0  0999 V2000
    4.2409    0.5290    0.0000 O   0  0  0  0  0  0  0  0  0  0  0  0
    2.1214    0.7840    0.0000 O   0  0  0  0  0  0  0  0  0  0  0  0
    5.2914   -0.8368    0.0000 N   0  0  0  0  0  0  0  0  0  0  0  0
    3.9860   -0.2556    0.0000 C   0  0  0  0  0  0  0  0  0  0  0  0
    2.9061    0.5290    0.0000 C   0  0  0  0  0  0  0  0  0  0  0  0
    3.5735    1.0140    0.0000 C   0  0  0  0  0  0  0  0  0  0  0  0
    3.1610   -0.2556    0.0000 C   0  0  0  0  0  0  0  0  0  0  0  0
    4.4709   -0.9230    0.0000 C   0  0  0  0  0  0  0  0  0  0  0  0
    3.5735    1.8390    0.0000 C   0  0  0  0  0  0  0  0  0  0  0  0
    6.1119   -0.7505    0.0000 C   0  0  0  0  0  0  0  0  0  0  0  0
    5.3776   -1.6573    0.0000 C   0  0  0  0  0  0  0  0  0  0  0  0
    5.2052   -0.0163    0.0000 C   0  0  0  0  0  0  0  0  0  0  0  0
    0.0000    0.0000    0.0000 Cl  0  0  0  0  0  0  0  0  0  0  0  0
  1  4  1  0
  1  6  1  0
  2  5  1  0
  3  8  1  0
  3 10  1  0
  3 11  1  0
  3 12  1  0
  4  7  1  0
  4  8  1  0
  5  6  1  0
  5  7  1  0
  6  9  1  0
M  CHG  2   3   1  13  -1
M  END

> <chembl_id>
CHEMBL1871893

> <chembl_pref_name>
None

$$$$

     RDKit          2D

 19 20  0  0  0  0  0  0  0  0999 V2000
   -3.4731   -0.4801    0.0000 Cl  0  0  0  0  0  0  0  0  0  0  0  0
   -0.6152   -4.6051    0.0000 Cl  0  0  0  0  0  0  0  0  0  0  0  0
   -0.6152   -1.3051    0.0000 S   0  0  0  0  0  0  0  0  0  0  0  0
   -1.4402   -1.3051    0.0000 O   0  0  0  0  0  0  0  0  0  0  0  0
    0.2098   -1.3051    0.0000 O   0  0  0  0  0  0  0  0  0  0  0  0
   -1.3297    0.7574    0.0000 N   0  0  0  0  0  0  0  0  0  0  0  0
   -2.7587    0.7574    0.0000 N   0  0  0  0  0  0  0  0  0  0  0  0
   -0.6152   -2.1301    0.0000 C   0  0  0  0  0  0  0  0  0  0  0  0
   -1.3297   -0.0676    0.0000 C   0  0  0  0  0  0  0  0  0  0  0  0
   -0.6152   -0.4801    0.0000 C   0  0  0  0  0  0  0  0  0  0  0  0
   -2.0442   -0.4801    0.0000 C   0  0  0  0  0  0  0  0  0  0  0  0
    0.0992   -2.5426    0.0000 C   0  0  0  0  0  0  0  0  0  0  0  0
   -1.3297   -2.5426    0.0000 C   0  0  0  0  0  0  0  0  0  0  0  0
   -2.7587   -0.0676    0.0000 C   0  0  0  0  0  0  0  0  0  0  0  0
   -2.0442    1.1699    0.0000 C   0  0  0  0  0  0  0  0  0  0  0  0
   -0.6152   -3.7801    0.0000 C   0  0  0  0  0  0  0  0  0  0  0  0
    0.0992   -3.3676    0.0000 C   0  0  0  0  0  0  0  0  0  0  0  0
   -1.3297   -3.3676    0.0000 C   0  0  0  0  0  0  0  0  0  0  0  0
   -2.0442    1.9949    0.0000 C   0  0  0  0  0  0  0  0  0  0  0  0
  1 14  1  0
  2 16  1  0
  3  4  2  0
  3  5  2  0
  3  8  1  0
  3 10  1  0
  6  9  2  0
  6 15  1  0
  7 14  1  0
  7 15  2  0
  8 12  2  0
  8 13  1  0
  9 10  1  0
  9 11  1  0
 11 14  2  0
 12 17  1  0
 13 18  2  0
 15 19  1  0
 16 17  2  0
 16 18  1  0
M  END

> <chembl_id>
CHEMBL1406943

> <chembl_pref_name>
None

$$$$

     RDKit          2D

 28 30  0  0  0  0  0  0  0  0999 V2000
   12.6093   -0.6047    0.0000 Cl  0  0  0  0  0  0  0  0  0  0  0  0
   -1.2964   -1.4973    0.0000 N   0  0  0  0  0  0  0  0  0  0  0  0
   -2.6111    0.7486    0.0000 C   0  0  0  0  0  0  0  0  0  0  0  0
    0.0000   -0.7486    0.0000 C   0  0  0  0  0  0  0  0  0  0  0  0
    0.0000    0.7486    0.0000 C   0  0  0  0  0  0  0  0  0  0  0  0
    1.2964   -1.4973    0.0000 C   0  0  0  0  0  0  0  0  0  0  0  0
   -2.6111   -0.7486    0.0000 C   0  0  0  0  0  0  0  0  0  0  0  0
   -1.2964    1.4973    0.0000 C   0  0  0  0  0  0  0  0  0  0  0  0
    2.5929   -0.7486    0.0000 C   0  0  0  0  0  0  0  0  0  0  0  0
    3.8926   -1.4990    0.0000 N   0  0  0  0  0  0  0  0  0  0  0  0
    2.5929    0.7486    0.0000 C   0  0  0  0  0  0  0  0  0  0  0  0
   -1.2919   -2.9980    0.0000 C   0  0  0  0  0  0  0  0  0  0  0  0
    1.2964    1.4973    0.0000 C   0  0  0  0  0  0  0  0  0  0  0  0
   -3.9122    1.4966    0.0000 C   0  0  0  0  0  0  0  0  0  0  0  0
   -2.0394   -4.2074    0.0000 C   0  0  0  0  0  0  0  0  0  0  0  0
   -0.5394   -4.2042    0.0000 C   0  0  0  0  0  0  0  0  0  0  0  0
    5.2449   -0.8800    0.0000 C   0  0  0  0  0  0  0  0  0  0  0  0
    4.0282   -2.9800    0.0000 C   0  0  0  0  0  0  0  0  0  0  0  0
   -1.2928    2.6973    0.0000 O   0  0  0  0  0  0  0  0  0  0  0  0
    1.2964   -2.6973    0.0000 N   0  0  0  0  0  0  0  0  0  0  0  0
   -4.9506    0.8952    0.0000 O   0  0  0  0  0  0  0  0  0  0  0  0
    6.2469   -1.9962    0.0000 C   0  0  0  0  0  0  0  0  0  0  0  0
    3.6321    1.3486    0.0000 F   0  0  0  0  0  0  0  0  0  0  0  0
   -3.9141    2.6966    0.0000 O   0  0  0  0  0  0  0  0  0  0  0  0
    5.4950   -3.2941    0.0000 C   0  0  0  0  0  0  0  0  0  0  0  0
    8.6161   -3.0617    0.0000 N   0  0  0  0  0  0  0  0  0  0  0  0
    7.7375   -1.8450    0.0000 C   0  0  0  0  0  0  0  0  0  0  0  0
    9.8100   -2.9406    0.0000 C   0  0  0  0  0  0  0  0  0  0  0  0
  2  4  1  0
  4  5  1  0
  4  6  2  0
  2  7  1  0
  3  7  2  0
  3  8  1  0
  5  8  1  0
  6  9  1  0
  9 10  1  0
  9 11  2  0
  2 12  1  0
  5 13  2  0
 11 13  1  0
  3 14  1  0
 12 15  1  0
 12 16  1  0
 15 16  1  0
 10 17  1  0
 10 18  1  0
  8 19  2  0
  6 20  1  0
 14 21  2  0
 17 22  1  0
 11 23  1  0
 14 24  1  0
 18 25  1  0
 22 25  1  0
 22 27  1  0
 26 27  1  0
 26 28  1  0
M  END

> <chembl_id>
CHEMBL541376

> <chembl_pref_name>
None

$$$$

     RDKit          2D

 36 37  0  0  0  0  0  0  0  0999 V2000
    5.2685    2.5313    0.0000 Cl  0  0  0  0  0  0  0  0  0  0  0  0
    2.3383   -1.3500    0.0000 C   0  0  0  0  0  0  0  0  0  0  0  0
    1.2990   -0.7500    0.0000 C   0  0  0  0  0  0  0  0  0  0  0  0
    1.2990    0.7500    0.0000 C   0  0  0  0  0  0  0  0  0  0  0  0
    0.0000    1.5000    0.0000 N   0  0  0  0  0  0  0  0  0  0  0  0
   -1.2990    0.7500    0.0000 C   0  0  0  0  0  0  0  0  0  0  0  0
   -1.2990   -0.7500    0.0000 C   0  0  0  0  0  0  0  0  0  0  0  0
   -2.3383   -1.3500    0.0000 C   0  0  0  0  0  0  0  0  0  0  0  0
    0.0000   -1.5000    0.0000 C   0  0  0  0  0  0  0  0  0  0  0  0
    1.0531   -2.0753    0.0000 O   0  0  0  0  0  0  0  0  0  0  0  0
   -0.9781   -2.6116    0.0000 C   0  0  0  0  0  0  0  0  0  0  0  0
   -0.4983   -4.0328    0.0000 C   0  0  0  0  0  0  0  0  0  0  0  0
   -1.4892   -5.1589    0.0000 N   0  0  0  0  0  0  0  0  0  0  0  0
   -2.9599   -4.8638    0.0000 C   0  0  0  0  0  0  0  0  0  0  0  0
   -3.4397   -3.4426    0.0000 N   0  0  0  0  0  0  0  0  0  0  0  0
   -2.4488   -2.3165    0.0000 C   0  0  0  0  0  0  0  0  0  0  0  0
   -0.0031    3.0008    0.0000 C   0  0  0  0  0  0  0  0  0  0  0  0
    1.0351    3.6026    0.0000 O   0  0  0  0  0  0  0  0  0  0  0  0
   -1.3039    3.7494    0.0000 C   0  0  0  0  0  0  0  0  0  0  0  0
   -2.6532    3.1236    0.0000 C   0  0  0  0  0  0  0  0  0  0  0  0
   -3.6607    4.2349    0.0000 N   0  0  0  0  0  0  0  0  0  0  0  0
   -2.9153    5.5365    0.0000 C   0  0  0  0  0  0  0  0  0  0  0  0
   -1.4470    5.2297    0.0000 C   0  0  0  0  0  0  0  0  0  0  0  0
   -0.3292    6.2312    0.0000 C   0  0  0  0  0  0  0  0  0  0  0  0
   -0.7584    7.6704    0.0000 C   0  0  0  0  0  0  0  0  0  0  0  0
    0.2758    8.7569    0.0000 C   0  0  0  0  0  0  0  0  0  0  0  0
    1.7338    8.4045    0.0000 C   0  0  0  0  0  0  0  0  0  0  0  0
    2.5612    9.2737    0.0000 F   0  0  0  0  0  0  0  0  0  0  0  0
    2.1577    6.9656    0.0000 C   0  0  0  0  0  0  0  0  0  0  0  0
    1.1235    5.8791    0.0000 C   0  0  0  0  0  0  0  0  0  0  0  0
    1.4622    4.7279    0.0000 F   0  0  0  0  0  0  0  0  0  0  0  0
   -5.1502    4.0731    0.0000 C   0  0  0  0  0  0  0  0  0  0  0  0
   -5.6352    2.9754    0.0000 C   0  0  0  0  0  0  0  0  0  0  0  0
   -5.8586    5.0417    0.0000 C   0  0  0  0  0  0  0  0  0  0  0  0
   -6.3433    3.9441    0.0000 C   0  0  0  0  0  0  0  0  0  0  0  0
    7.7685    2.5313    0.0000 Cl  0  0  0  0  0  0  0  0  0  0  0  0
  3  2  1  1
  3  4  1  0
  4  5  1  0
  5  6  1  0
  6  7  1  0
  7  8  1  1
  7  9  1  0
  9  3  1  0
  9 10  1  1
  9 11  1  0
 11 12  2  0
 12 13  1  0
 13 14  2  0
 14 15  1  0
 15 16  2  0
 16 11  1  0
  5 17  1  0
 17 18  2  0
 19 17  1  6
 19 20  1  0
 20 21  1  0
 21 22  1  0
 22 23  1  0
 23 19  1  0
 23 24  1  1
 24 25  2  0
 25 26  1  0
 26 27  2  0
 27 28  1  0
 27 29  1  0
 29 30  2  0
 30 24  1  0
 30 31  1  0
 21 32  1  0
 32 33  1  0
 32 34  1  0
 32 35  1  0
M  END

> <chembl_id>
CHEMBL1204064

> <chembl_pref_name>
None

$$$$

     RDKit          2D

 28 30  0  0  0  0  0  0  0  0999 V2000
   -6.1281    4.1042    0.0000 S   0  0  0  0  0  0  0  0  0  0  0  0
   -5.3577    1.4539    0.0000 O   0  0  0  0  0  0  0  0  0  0  0  0
   -5.0360    5.4370    0.0000 O   0  0  0  0  0  0  0  0  0  0  0  0
   -6.7608    1.7239    0.0000 N   0  0  0  0  0  0  0  0  0  0  0  0
   -3.9559    4.5015    0.0000 N   0  0  0  0  0  0  0  0  0  0  0  0
   -1.2554    5.4370    0.0000 N   0  0  0  0  0  0  0  0  0  0  0  0
   -6.4490    3.3442    0.0000 C   0  0  0  0  0  0  0  0  0  0  0  0
   -5.8254    2.8041    0.0000 C   0  0  0  0  0  0  0  0  0  0  0  0
   -7.2286    3.0741    0.0000 C   0  0  0  0  0  0  0  0  0  0  0  0
   -7.3845    2.2640    0.0000 C   0  0  0  0  0  0  0  0  0  0  0  0
   -5.9813    1.9939    0.0000 C   0  0  0  0  0  0  0  0  0  0  0  0
   -5.3061    4.0338    0.0000 C   0  0  0  0  0  0  0  0  0  0  0  0
   -5.1190    3.2303    0.0000 C   0  0  0  0  0  0  0  0  0  0  0  0
   -7.8522    3.6142    0.0000 C   0  0  0  0  0  0  0  0  0  0  0  0
   -8.1640    1.9939    0.0000 C   0  0  0  0  0  0  0  0  0  0  0  0
   -4.7660    4.6575    0.0000 C   0  0  0  0  0  0  0  0  0  0  0  0
   -8.6318    3.3442    0.0000 C   0  0  0  0  0  0  0  0  0  0  0  0
   -6.9168    0.9138    0.0000 C   0  0  0  0  0  0  0  0  0  0  0  0
   -8.7877    2.5340    0.0000 C   0  0  0  0  0  0  0  0  0  0  0  0
   -3.4158    5.1252    0.0000 C   0  0  0  0  0  0  0  0  0  0  0  0
   -2.6056    4.9693    0.0000 C   0  0  0  0  0  0  0  0  0  0  0  0
   -2.0656    5.5929    0.0000 C   0  0  0  0  0  0  0  0  0  0  0  0
   -0.7153    6.0606    0.0000 C   0  0  0  0  0  0  0  0  0  0  0  0
   -0.9854    4.6575    0.0000 C   0  0  0  0  0  0  0  0  0  0  0  0
    0.0948    5.9047    0.0000 C   0  0  0  0  0  0  0  0  0  0  0  0
   -0.1752    4.5015    0.0000 C   0  0  0  0  0  0  0  0  0  0  0  0
    0.6349    6.5284    0.0000 C   0  0  0  0  0  0  0  0  0  0  0  0
    0.0948    3.7220    0.0000 C   0  0  0  0  0  0  0  0  0  0  0  0
  1  7  1  0
  1 12  1  0
  2 11  2  0
  3 16  2  0
  4 10  1  0
  4 11  1  0
  4 18  1  0
  5 16  1  0
  5 20  1  0
  6 22  1  0
  6 23  1  0
  6 24  1  0
  7  8  2  0
  7  9  1  0
  8 11  1  0
  8 13  1  0
  9 10  2  0
  9 14  1  0
 10 15  1  0
 12 13  2  0
 12 16  1  0
 14 17  2  0
 15 19  2  0
 17 19  1  0
 20 21  1  0
 21 22  1  0
 23 25  1  0
 24 26  1  0
 25 27  1  0
 26 28  1  0
M  END

> <chembl_id>
CHEMBL1406954

> <chembl_pref_name>
None

$$$$

     RDKit          2D

 17 17  0  0  0  0  0  0  0  0999 V2000
    3.3409    0.9860    0.0000 N   0  0  0  0  0  0  0  0  0  0  0  0
    4.8561    0.1655    0.0000 N   0  0  0  0  0  0  0  0  0  0  0  0
    3.4271    0.1655    0.0000 C   0  0  0  0  0  0  0  0  0  0  0  0
    2.6735   -0.1701    0.0000 C   0  0  0  0  0  0  0  0  0  0  0  0
    2.5339    1.1575    0.0000 C   0  0  0  0  0  0  0  0  0  0  0  0
    4.1416   -0.2470    0.0000 C   0  0  0  0  0  0  0  0  0  0  0  0
    2.1214    0.4430    0.0000 C   0  0  0  0  0  0  0  0  0  0  0  0
    6.9995   -0.2470    0.0000 C   0  0  0  0  0  0  0  0  0  0  0  0
    6.2850    0.1655    0.0000 C   0  0  0  0  0  0  0  0  0  0  0  0
    3.9540    1.5380    0.0000 C   0  0  0  0  0  0  0  0  0  0  0  0
    5.5705   -0.2470    0.0000 C   0  0  0  0  0  0  0  0  0  0  0  0
    7.7140    0.1655    0.0000 C   0  0  0  0  0  0  0  0  0  0  0  0
    6.9995   -1.0720    0.0000 C   0  0  0  0  0  0  0  0  0  0  0  0
    8.4284   -0.2470    0.0000 C   0  0  0  0  0  0  0  0  0  0  0  0
    7.7140   -1.4845    0.0000 C   0  0  0  0  0  0  0  0  0  0  0  0
    8.4284   -1.0720    0.0000 C   0  0  0  0  0  0  0  0  0  0  0  0
    0.0000    0.0000    0.0000 Cl  0  0  0  0  0  0  0  0  0  0  0  0
  1  3  1  0
  1  5  1  0
  1 10  1  0
  2  6  1  0
  2 11  1  0
  3  4  2  0
  3  6  1  0
  4  7  1  0
  5  7  2  0
  8  9  1  0
  8 12  2  0
  8 13  1  0
  9 11  1  0
 12 14  1  0
 13 15  2  0
 14 16  2  0
 15 16  1  0
M  END

> <chembl_id>
CHEMBL1729717

> <chembl_pref_name>
None

$$$$

     RDKit          2D

 30 32  0  0  0  0  0  0  0  0999 V2000
   -2.6534   -0.4123    0.0000 F   0  0  0  0  0  0  0  0  0  0  0  0
   -1.0034   -0.4123    0.0000 F   0  0  0  0  0  0  0  0  0  0  0  0
   -1.8284   -1.2373    0.0000 F   0  0  0  0  0  0  0  0  0  0  0  0
   -4.0581    1.6457    0.0000 O   0  0  0  0  0  0  0  0  0  0  0  0
   -1.1140    0.8252    0.0000 O   0  0  0  0  0  0  0  0  0  0  0  0
   -2.5429   -0.8248    0.0000 O   0  0  0  0  0  0  0  0  0  0  0  0
   -2.5429    0.8252    0.0000 N   0  0  0  0  0  0  0  0  0  0  0  0
   -3.9718   -0.8248    0.0000 N   0  0  0  0  0  0  0  0  0  0  0  0
   -3.2574    0.4127    0.0000 C   0  0  0  0  0  0  0  0  0  0  0  0
   -1.8284    0.4127    0.0000 C   0  0  0  0  0  0  0  0  0  0  0  0
   -3.9718    0.8252    0.0000 C   0  0  0  0  0  0  0  0  0  0  0  0
   -3.2574   -0.4123    0.0000 C   0  0  0  0  0  0  0  0  0  0  0  0
   -1.8284   -0.4123    0.0000 C   0  0  0  0  0  0  0  0  0  0  0  0
   -2.5429    1.6502    0.0000 C   0  0  0  0  0  0  0  0  0  0  0  0
   -1.8284    2.0627    0.0000 C   0  0  0  0  0  0  0  0  0  0  0  0
   -4.7255    0.4896    0.0000 C   0  0  0  0  0  0  0  0  0  0  0  0
   -3.9718   -1.6498    0.0000 C   0  0  0  0  0  0  0  0  0  0  0  0
   -4.8650    1.8172    0.0000 C   0  0  0  0  0  0  0  0  0  0  0  0
   -5.2775    1.1027    0.0000 C   0  0  0  0  0  0  0  0  0  0  0  0
   -1.8284    2.8877    0.0000 C   0  0  0  0  0  0  0  0  0  0  0  0
   -1.1140    1.6502    0.0000 C   0  0  0  0  0  0  0  0  0  0  0  0
   -1.1140    3.3002    0.0000 C   0  0  0  0  0  0  0  0  0  0  0  0
   -0.3995    2.0627    0.0000 C   0  0  0  0  0  0  0  0  0  0  0  0
   -0.3995    2.8877    0.0000 C   0  0  0  0  0  0  0  0  0  0  0  0
   -3.2574   -2.0623    0.0000 C   0  0  0  0  0  0  0  0  0  0  0  0
   -4.6863   -2.0623    0.0000 C   0  0  0  0  0  0  0  0  0  0  0  0
   -3.2574   -2.8873    0.0000 C   0  0  0  0  0  0  0  0  0  0  0  0
   -4.6863   -2.8873    0.0000 C   0  0  0  0  0  0  0  0  0  0  0  0
   -3.9718   -3.2998    0.0000 C   0  0  0  0  0  0  0  0  0  0  0  0
    0.3150    3.3002    0.0000 C   0  0  0  0  0  0  0  0  0  0  0  0
  1 13  1  0
  2 13  1  0
  3 13  1  0
  4 11  1  0
  4 18  1  0
  5 10  2  0
  6 12  2  0
  7  9  1  0
  7 10  1  0
  7 14  1  0
  8 12  1  0
  8 17  1  0
  9 11  1  0
  9 12  1  0
 10 13  1  0
 11 16  2  0
 14 15  1  0
 15 20  2  0
 15 21  1  0
 16 19  1  0
 17 25  1  0
 17 26  1  0
 18 19  2  0
 20 22  1  0
 21 23  2  0
 22 24  2  0
 23 24  1  0
 24 30  1  0
 25 27  1  0
 26 28  1  0
 27 29  1  0
 28 29  1  0
M  END

> <chembl_id>
CHEMBL1340690

> <chembl_pref_name>
None

$$$$

     RDKit          2D

 30 33  0  0  0  0  0  0  0  0999 V2000
    6.1372    3.0506    0.0000 N   0  0  0  0  0  0  0  0  0  0  0  0
    6.8524    2.6392    0.0000 N   0  0  0  0  0  0  0  0  0  0  0  0
    6.8490    1.8157    0.0000 C   0  0  0  0  0  0  0  0  0  0  0  0
    7.5633    1.4044    0.0000 N   0  0  0  0  0  0  0  0  0  0  0  0
    7.5593    3.0550    0.0000 C   0  0  0  0  0  0  0  0  0  0  0  0
    8.2742    2.6474    0.0000 C   0  0  0  0  0  0  0  0  0  0  0  0
    8.2767    1.8210    0.0000 C   0  0  0  0  0  0  0  0  0  0  0  0
    9.0634    1.5679    0.0000 C   0  0  0  0  0  0  0  0  0  0  0  0
    9.5473    2.2381    0.0000 N   0  0  0  0  0  0  0  0  0  0  0  0
    9.0594    2.9051    0.0000 N   0  0  0  0  0  0  0  0  0  0  0  0
    7.5537    3.8801    0.0000 O   0  0  0  0  0  0  0  0  0  0  0  0
    6.1383    1.3931    0.0000 C   0  0  0  0  0  0  0  0  0  0  0  0
    5.4201    1.7990    0.0000 C   0  0  0  0  0  0  0  0  0  0  0  0
    4.7121    1.3789    0.0000 C   0  0  0  0  0  0  0  0  0  0  0  0
    4.7220    0.5540    0.0000 C   0  0  0  0  0  0  0  0  0  0  0  0
    5.4457    0.1512    0.0000 C   0  0  0  0  0  0  0  0  0  0  0  0
    6.1507    0.5737    0.0000 C   0  0  0  0  0  0  0  0  0  0  0  0
    5.4590   -0.6737    0.0000 O   0  0  0  0  0  0  0  0  0  0  0  0
    4.7511   -1.0977    0.0000 C   0  0  0  0  0  0  0  0  0  0  0  0
    9.4694    0.8494    0.0000 C   0  0  0  0  0  0  0  0  0  0  0  0
   10.2943    0.8411    0.0000 C   0  0  0  0  0  0  0  0  0  0  0  0
   10.6997    0.1224    0.0000 C   0  0  0  0  0  0  0  0  0  0  0  0
    6.1359    3.8757    0.0000 C   0  0  0  0  0  0  0  0  0  0  0  0
    5.4208    4.2871    0.0000 C   0  0  0  0  0  0  0  0  0  0  0  0
    6.8498    4.2893    0.0000 O   0  0  0  0  0  0  0  0  0  0  0  0
    5.4158    5.1037    0.0000 C   0  0  0  0  0  0  0  0  0  0  0  0
    4.7014    5.5081    0.0000 C   0  0  0  0  0  0  0  0  0  0  0  0
    3.9926    5.0910    0.0000 N   0  0  0  0  0  0  0  0  0  0  0  0
    4.0025    4.2688    0.0000 C   0  0  0  0  0  0  0  0  0  0  0  0
    4.7173    3.8644    0.0000 C   0  0  0  0  0  0  0  0  0  0  0  0
  1  2  1  0
 14 15  2  0
  3  4  2  0
 15 16  1  0
  4  7  1  0
 16 17  2  0
 17 12  1  0
 16 18  1  0
  7  8  1  0
 18 19  1  0
  8  9  2  0
  8 20  1  0
  9 10  1  0
 20 21  1  0
 10  6  1  0
 21 22  1  0
  6  5  1  0
  1 23  1  0
  5 11  2  0
 23 24  1  0
  5  2  1  0
 23 25  2  0
  3 12  1  0
 24 26  2  0
  6  7  2  0
 26 27  1  0
 12 13  2  0
 27 28  2  0
  2  3  1  0
 28 29  1  0
 13 14  1  0
 29 30  2  0
 30 24  1  0
M  END

> <chembl_id>
CHEMBL1080894

> <chembl_pref_name>
None

$$$$

     RDKit          2D

 18 20  0  0  0  0  0  0  0  0999 V2000
    1.9166    0.6762    0.0000 N   0  0  0  0  0  0  0  0  0  0  0  0
    0.8547   -1.6148    0.0000 N   0  0  0  0  0  0  0  0  0  0  0  0
    2.7012   -0.4037    0.0000 C   0  0  0  0  0  0  0  0  0  0  0  0
    1.9166   -0.6587    0.0000 C   0  0  0  0  0  0  0  0  0  0  0  0
    2.7012    0.4213    0.0000 C   0  0  0  0  0  0  0  0  0  0  0  0
    1.4317    0.0088    0.0000 C   0  0  0  0  0  0  0  0  0  0  0  0
    1.6617   -1.4433    0.0000 C   0  0  0  0  0  0  0  0  0  0  0  0
    3.4157   -0.8162    0.0000 C   0  0  0  0  0  0  0  0  0  0  0  0
    3.4157    0.8338    0.0000 C   0  0  0  0  0  0  0  0  0  0  0  0
    4.1302   -0.4037    0.0000 C   0  0  0  0  0  0  0  0  0  0  0  0
    4.1302    0.4213    0.0000 C   0  0  0  0  0  0  0  0  0  0  0  0
    0.7044   -2.4260    0.0000 C   0  0  0  0  0  0  0  0  0  0  0  0
    0.3874   -0.9349    0.0000 C   0  0  0  0  0  0  0  0  0  0  0  0
    0.0245   -2.8933    0.0000 C   0  0  0  0  0  0  0  0  0  0  0  0
   -0.4238   -0.7846    0.0000 C   0  0  0  0  0  0  0  0  0  0  0  0
   -0.7867   -2.7429    0.0000 C   0  0  0  0  0  0  0  0  0  0  0  0
   -1.1037   -1.2518    0.0000 C   0  0  0  0  0  0  0  0  0  0  0  0
   -1.2540   -2.0630    0.0000 C   0  0  0  0  0  0  0  0  0  0  0  0
  1  5  1  0
  1  6  1  0
  2  7  1  0
  2 12  1  0
  2 13  1  0
  3  4  1  0
  3  5  1  0
  3  8  2  0
  4  6  2  0
  4  7  1  0
  5  9  2  0
  8 10  1  0
  9 11  1  0
 10 11  2  0
 12 14  1  0
 13 15  1  0
 14 16  1  0
 15 17  1  0
 16 18  1  0
 17 18  1  0
M  END

> <chembl_id>
CHEMBL1346694

> <chembl_pref_name>
None

$$$$

     RDKit          2D

 15 14  0  0  0  0  0  0  0  0999 V2000
   17.7553   -9.0386    0.0000 Cl  0  0  0  0  0  0  0  0  0  0  0  0
   17.6272  -11.1270    0.0000 C   0  0  0  0  0  0  0  0  0  0  0  0
   18.3390  -10.7184    0.0000 C   0  0  0  0  0  0  0  0  0  0  0  0
   19.0508  -11.1270    0.0000 N   0  0  0  0  0  0  0  0  0  0  0  0
   19.7627  -10.7184    0.0000 C   0  0  0  0  0  0  0  0  0  0  0  0
   20.4745  -11.1270    0.0000 N   0  0  0  0  0  0  0  0  0  0  0  0
   19.7627   -9.8971    0.0000 N   0  0  0  0  0  0  0  0  0  0  0  0
   20.4704   -9.4885    0.0000 O   0  0  0  0  0  0  0  0  0  0  0  0
   16.2062  -11.1247    0.0000 C   0  0  0  0  0  0  0  0  0  0  0  0
   16.9195  -10.7184    0.0000 C   0  0  0  0  0  0  0  0  0  0  0  0
   16.9232   -9.8995    0.0000 C   0  0  0  0  0  0  0  0  0  0  0  0
   16.2145   -9.4858    0.0000 C   0  0  0  0  0  0  0  0  0  0  0  0
   15.5006   -9.8971    0.0000 C   0  0  0  0  0  0  0  0  0  0  0  0
   15.5003  -10.7147    0.0000 C   0  0  0  0  0  0  0  0  0  0  0  0
   14.7931   -9.4881    0.0000 Cl  0  0  0  0  0  0  0  0  0  0  0  0
 10  2  1  0
  2  3  1  0
  3  4  1  0
  4  5  1  0
  5  6  1  0
  5  7  2  0
  7  8  1  0
  9 10  2  0
 10 11  1  0
 11 12  2  0
 12 13  1  0
 13 14  2  0
 14  9  1  0
 13 15  1  0
M  END

> <chembl_id>
CHEMBL2398460

> <chembl_pref_name>
None

$$$$

     RDKit          2D

 29 32  0  0  0  0  0  0  0  0999 V2000
   -3.4723  -17.5541    0.0000 N   0  0  0  0  0  0  0  0  0  0  0  0
   -3.4734  -18.3815    0.0000 C   0  0  0  0  0  0  0  0  0  0  0  0
   -2.7586  -18.7944    0.0000 C   0  0  0  0  0  0  0  0  0  0  0  0
   -2.0422  -18.3810    0.0000 C   0  0  0  0  0  0  0  0  0  0  0  0
   -2.0450  -17.5505    0.0000 N   0  0  0  0  0  0  0  0  0  0  0  0
   -2.7604  -17.1414    0.0000 C   0  0  0  0  0  0  0  0  0  0  0  0
   -2.7629  -16.3164    0.0000 N   0  0  0  0  0  0  0  0  0  0  0  0
   -2.0496  -15.9017    0.0000 C   0  0  0  0  0  0  0  0  0  0  0  0
   -2.0521  -15.0767    0.0000 C   0  0  0  0  0  0  0  0  0  0  0  0
   -1.3339  -16.3121    0.0000 C   0  0  0  0  0  0  0  0  0  0  0  0
   -1.3337  -17.1344    0.0000 C   0  0  0  0  0  0  0  0  0  0  0  0
   -0.6188  -17.5447    0.0000 C   0  0  0  0  0  0  0  0  0  0  0  0
    0.0954  -17.1300    0.0000 C   0  0  0  0  0  0  0  0  0  0  0  0
    0.0903  -16.3008    0.0000 C   0  0  0  0  0  0  0  0  0  0  0  0
   -0.6251  -15.8942    0.0000 C   0  0  0  0  0  0  0  0  0  0  0  0
   -1.3270  -18.7924    0.0000 N   0  0  0  0  0  0  0  0  0  0  0  0
   -0.6132  -18.3788    0.0000 C   0  0  0  0  0  0  0  0  0  0  0  0
    0.1019  -18.7902    0.0000 C   0  0  0  0  0  0  0  0  0  0  0  0
   -1.3258  -19.6174    0.0000 C   0  0  0  0  0  0  0  0  0  0  0  0
   -0.6106  -20.0288    0.0000 O   0  0  0  0  0  0  0  0  0  0  0  0
   -2.0396  -20.0310    0.0000 C   0  0  0  0  0  0  0  0  0  0  0  0
   -2.7516  -19.6158    0.0000 C   0  0  0  0  0  0  0  0  0  0  0  0
   -3.4649  -20.0287    0.0000 C   0  0  0  0  0  0  0  0  0  0  0  0
   -3.4641  -20.8546    0.0000 C   0  0  0  0  0  0  0  0  0  0  0  0
   -2.7439  -21.2658    0.0000 C   0  0  0  0  0  0  0  0  0  0  0  0
   -2.0336  -20.8505    0.0000 C   0  0  0  0  0  0  0  0  0  0  0  0
   -4.1799  -19.6170    0.0000 C   0  0  0  0  0  0  0  0  0  0  0  0
   -4.5938  -18.9025    0.0000 C   0  0  0  0  0  0  0  0  0  0  0  0
   -5.0056  -19.6174    0.0000 C   0  0  0  0  0  0  0  0  0  0  0  0
  6  7  1  0
 14 15  2  0
 15 10  1  0
  3  4  2  0
  4 16  1  0
  7  8  1  0
 16 17  1  0
 17 18  1  0
  8  9  1  1
 16 19  1  0
  4  5  1  0
 19 20  2  0
  8 10  1  0
 19 21  1  0
  2  3  1  0
 21 22  2  0
 10 11  2  0
 22 23  1  0
  5  6  2  0
 23 24  2  0
 11 12  1  0
 24 25  1  0
  6  1  1  0
 25 26  2  0
 26 21  1  0
 12 13  2  0
 23 27  1  0
 28 27  1  0
 29 28  1  0
 27 29  1  0
  1  2  2  0
 13 14  1  0
M  END

> <chembl_id>
CHEMBL1092694

> <chembl_pref_name>
None

$$$$

     RDKit          2D

 27 28  0  0  0  0  0  0  0  0999 V2000
   10.3805    6.3542    0.0000 Cl  0  0  0  0  0  0  0  0  0  0  0  0
    0.0000    1.5002    0.0000 C   0  0  0  0  0  0  0  0  0  0  0  0
    0.0000   -1.5002    0.0000 N   0  0  0  0  0  0  0  0  0  0  0  0
   -1.2989    0.7501    0.0000 C   0  0  0  0  0  0  0  0  0  0  0  0
    1.2806    0.7501    0.0000 C   0  0  0  0  0  0  0  0  0  0  0  0
   -1.2989   -0.7501    0.0000 C   0  0  0  0  0  0  0  0  0  0  0  0
    1.2806   -0.7501    0.0000 C   0  0  0  0  0  0  0  0  0  0  0  0
    0.0120    3.0009    0.0000 N   0  0  0  0  0  0  0  0  0  0  0  0
    6.5867   12.7078    0.0000 N   0  0  0  0  0  0  0  0  0  0  0  0
   -2.5978    1.5002    0.0000 C   0  0  0  0  0  0  0  0  0  0  0  0
    2.5978    1.5002    0.0000 C   0  0  0  0  0  0  0  0  0  0  0  0
   -2.5978   -1.5002    0.0000 C   0  0  0  0  0  0  0  0  0  0  0  0
    2.5978   -1.5002    0.0000 C   0  0  0  0  0  0  0  0  0  0  0  0
    1.3173    3.7417    0.0000 C   0  0  0  0  0  0  0  0  0  0  0  0
    5.2814   11.9671    0.0000 C   0  0  0  0  0  0  0  0  0  0  0  0
    6.5963   13.9078    0.0000 C   0  0  0  0  0  0  0  0  0  0  0  0
    7.6212   12.0998    0.0000 C   0  0  0  0  0  0  0  0  0  0  0  0
    5.2693   10.4663    0.0000 C   0  0  0  0  0  0  0  0  0  0  0  0
    1.3293    5.2425    0.0000 C   0  0  0  0  0  0  0  0  0  0  0  0
    3.9520    8.2248    0.0000 C   0  0  0  0  0  0  0  0  0  0  0  0
    3.9640    9.7255    0.0000 C   0  0  0  0  0  0  0  0  0  0  0  0
    2.6346    5.9832    0.0000 C   0  0  0  0  0  0  0  0  0  0  0  0
    2.6467    7.4840    0.0000 C   0  0  0  0  0  0  0  0  0  0  0  0
   -3.8968    0.7501    0.0000 C   0  0  0  0  0  0  0  0  0  0  0  0
    3.8968    0.7501    0.0000 C   0  0  0  0  0  0  0  0  0  0  0  0
   -3.8968   -0.7501    0.0000 C   0  0  0  0  0  0  0  0  0  0  0  0
    3.8968   -0.7501    0.0000 C   0  0  0  0  0  0  0  0  0  0  0  0
  2  4  2  0
  2  5  1  0
  3  6  2  0
  4  6  1  0
  3  7  1  0
  5  7  1  0
  2  8  1  0
  4 10  1  0
  5 11  2  0
  6 12  1  0
  7 13  2  0
  8 14  1  0
  9 15  1  0
  9 16  1  0
  9 17  1  0
 15 18  1  0
 14 19  1  0
 18 21  1  0
 20 21  1  0
 19 22  1  0
 20 23  1  0
 22 23  1  0
 10 24  1  0
 11 25  1  0
 12 26  1  0
 24 26  1  0
 13 27  1  0
 25 27  2  0
M  END

> <chembl_id>
CHEMBL541853

> <chembl_pref_name>
None

$$$$

     RDKit          2D

 22 24  0  0  0  0  0  0  0  0999 V2000
   -5.8873   -5.5193    0.0000 C   0  0  0  0  0  0  0  0  0  0  0  0
   -5.8885   -6.3465    0.0000 C   0  0  0  0  0  0  0  0  0  0  0  0
   -5.1739   -6.7592    0.0000 C   0  0  0  0  0  0  0  0  0  0  0  0
   -5.1757   -5.1066    0.0000 C   0  0  0  0  0  0  0  0  0  0  0  0
   -4.4605   -5.5157    0.0000 C   0  0  0  0  0  0  0  0  0  0  0  0
   -4.4617   -6.3485    0.0000 C   0  0  0  0  0  0  0  0  0  0  0  0
   -3.7450   -6.7637    0.0000 N   0  0  0  0  0  0  0  0  0  0  0  0
   -3.0225   -6.3506    0.0000 C   0  0  0  0  0  0  0  0  0  0  0  0
   -3.0213   -5.5177    0.0000 N   0  0  0  0  0  0  0  0  0  0  0  0
   -3.7426   -5.0980    0.0000 C   0  0  0  0  0  0  0  0  0  0  0  0
   -2.3094   -6.7650    0.0000 S   0  0  0  0  0  0  0  0  0  0  0  0
   -3.7426   -4.2733    0.0000 O   0  0  0  0  0  0  0  0  0  0  0  0
   -2.3061   -5.1071    0.0000 C   0  0  0  0  0  0  0  0  0  0  0  0
   -2.3040   -4.2824    0.0000 C   0  0  0  0  0  0  0  0  0  0  0  0
   -1.5868   -3.8733    0.0000 C   0  0  0  0  0  0  0  0  0  0  0  0
   -1.5844   -3.0492    0.0000 C   0  0  0  0  0  0  0  0  0  0  0  0
   -2.2982   -2.6343    0.0000 C   0  0  0  0  0  0  0  0  0  0  0  0
   -3.0159   -3.0493    0.0000 C   0  0  0  0  0  0  0  0  0  0  0  0
   -3.0147   -3.8720    0.0000 C   0  0  0  0  0  0  0  0  0  0  0  0
   -6.6030   -5.1071    0.0000 C   0  0  0  0  0  0  0  0  0  0  0  0
   -1.5940   -6.3546    0.0000 C   0  0  0  0  0  0  0  0  0  0  0  0
   -0.8809   -6.7690    0.0000 C   0  0  0  0  0  0  0  0  0  0  0  0
  5  6  1  0
  8 11  1  0
 10 12  2  0
  2  3  1  0
  9 13  1  0
  3  6  2  0
 13 14  1  0
  1  2  2  0
 14 15  2  0
  5  4  2  0
 15 16  1  0
  4  1  1  0
 16 17  2  0
  5 10  1  0
 17 18  1  0
  6  7  1  0
 18 19  2  0
 19 14  1  0
  7  8  2  0
  1 20  1  0
  8  9  1  0
 11 21  1  0
  9 10  1  0
 21 22  1  0
M  END

> <chembl_id>
CHEMBL1090604

> <chembl_pref_name>
None

$$$$

     RDKit          2D

 37 39  0  0  0  0  0  0  0  0999 V2000
    0.2027   -3.8465    0.0000 S   0  0  0  0  0  0  0  0  0  0  0  0
    0.6152   -3.1321    0.0000 O   0  0  0  0  0  0  0  0  0  0  0  0
   -0.2098   -4.5610    0.0000 O   0  0  0  0  0  0  0  0  0  0  0  0
   -2.6552   -4.6715    0.0000 O   0  0  0  0  0  0  0  0  0  0  0  0
   -8.3709   -4.6715    0.0000 O   0  0  0  0  0  0  0  0  0  0  0  0
    3.7751   -2.6090    0.0000 O   0  0  0  0  0  0  0  0  0  0  0  0
   -6.9420   -4.6715    0.0000 O   0  0  0  0  0  0  0  0  0  0  0  0
   -4.7986   -2.6090    0.0000 O   0  0  0  0  0  0  0  0  0  0  0  0
    0.9172   -4.2590    0.0000 N   0  0  0  0  0  0  0  0  0  0  0  0
   -3.3696   -3.4340    0.0000 N   0  0  0  0  0  0  0  0  0  0  0  0
   -4.0841   -3.8465    0.0000 N   0  0  0  0  0  0  0  0  0  0  0  0
   -6.2275   -3.4340    0.0000 N   0  0  0  0  0  0  0  0  0  0  0  0
   -0.5118   -3.4340    0.0000 C   0  0  0  0  0  0  0  0  0  0  0  0
   -1.9407   -3.4340    0.0000 C   0  0  0  0  0  0  0  0  0  0  0  0
   -1.2262   -3.8465    0.0000 C   0  0  0  0  0  0  0  0  0  0  0  0
   -0.5118   -2.6090    0.0000 C   0  0  0  0  0  0  0  0  0  0  0  0
    1.6317   -3.8465    0.0000 C   0  0  0  0  0  0  0  0  0  0  0  0
   -2.6552   -3.8465    0.0000 C   0  0  0  0  0  0  0  0  0  0  0  0
   -1.9407   -2.6090    0.0000 C   0  0  0  0  0  0  0  0  0  0  0  0
   -1.2262   -2.1965    0.0000 C   0  0  0  0  0  0  0  0  0  0  0  0
   -7.6565   -3.4340    0.0000 C   0  0  0  0  0  0  0  0  0  0  0  0
    1.6317   -3.0215    0.0000 C   0  0  0  0  0  0  0  0  0  0  0  0
    2.3461   -4.2590    0.0000 C   0  0  0  0  0  0  0  0  0  0  0  0
   -8.3709   -3.8465    0.0000 C   0  0  0  0  0  0  0  0  0  0  0  0
   -6.9420   -3.8465    0.0000 C   0  0  0  0  0  0  0  0  0  0  0  0
    3.0606   -3.0215    0.0000 C   0  0  0  0  0  0  0  0  0  0  0  0
    2.3461   -2.6090    0.0000 C   0  0  0  0  0  0  0  0  0  0  0  0
    3.0606   -3.8465    0.0000 C   0  0  0  0  0  0  0  0  0  0  0  0
   -7.6565   -2.6090    0.0000 C   0  0  0  0  0  0  0  0  0  0  0  0
   -9.0854   -3.4340    0.0000 C   0  0  0  0  0  0  0  0  0  0  0  0
   -4.7986   -3.4340    0.0000 C   0  0  0  0  0  0  0  0  0  0  0  0
   -8.3709   -2.1965    0.0000 C   0  0  0  0  0  0  0  0  0  0  0  0
   -5.5130   -3.8465    0.0000 C   0  0  0  0  0  0  0  0  0  0  0  0
   -9.0854   -2.6090    0.0000 C   0  0  0  0  0  0  0  0  0  0  0  0
   -9.0854   -5.0840    0.0000 C   0  0  0  0  0  0  0  0  0  0  0  0
    4.4895   -3.0215    0.0000 C   0  0  0  0  0  0  0  0  0  0  0  0
   -9.0854   -5.9090    0.0000 C   0  0  0  0  0  0  0  0  0  0  0  0
  1  2  2  0
  1  3  2  0
  1  9  1  0
  1 13  1  0
  4 18  2  0
  5 24  1  0
  5 35  1  0
  6 26  1  0
  6 36  1  0
  7 25  2  0
  8 31  2  0
  9 17  1  0
 10 11  1  0
 10 18  1  0
 11 31  1  0
 12 25  1  0
 12 33  1  0
 13 15  2  0
 13 16  1  0
 14 15  1  0
 14 18  1  0
 14 19  2  0
 16 20  2  0
 17 22  2  0
 17 23  1  0
 19 20  1  0
 21 24  1  0
 21 25  1  0
 21 29  2  0
 22 27  1  0
 23 28  2  0
 24 30  2  0
 26 27  2  0
 26 28  1  0
 29 32  1  0
 30 34  1  0
 31 33  1  0
 32 34  2  0
 35 37  1  0
M  END

> <chembl_id>
CHEMBL1440649

> <chembl_pref_name>
None

$$$$

     RDKit          2D

 29 32  0  0  0  0  0  0  0  0999 V2000
   -2.2975    2.3900    0.0000 S   0  0  0  0  0  0  0  0  0  0  0  0
   -0.6856    5.5645    0.0000 O   0  0  0  0  0  0  0  0  0  0  0  0
   -2.1113    0.2152    0.0000 O   0  0  0  0  0  0  0  0  0  0  0  0
   -3.2674    1.0551    0.0000 O   0  0  0  0  0  0  0  0  0  0  0  0
   -2.0675    3.8421    0.0000 N   0  0  0  0  0  0  0  0  0  0  0  0
   -0.7326    3.8421    0.0000 N   0  0  0  0  0  0  0  0  0  0  0  0
   -0.9876    3.0574    0.0000 N   0  0  0  0  0  0  0  0  0  0  0  0
   -1.4001    4.3270    0.0000 C   0  0  0  0  0  0  0  0  0  0  0  0
   -1.8126    3.0574    0.0000 C   0  0  0  0  0  0  0  0  0  0  0  0
    0.0289    6.8020    0.0000 C   0  0  0  0  0  0  0  0  0  0  0  0
   -0.6856    6.3895    0.0000 C   0  0  0  0  0  0  0  0  0  0  0  0
    0.0289    7.6270    0.0000 C   0  0  0  0  0  0  0  0  0  0  0  0
   -1.4001    5.1520    0.0000 C   0  0  0  0  0  0  0  0  0  0  0  0
   -1.4001    6.8020    0.0000 C   0  0  0  0  0  0  0  0  0  0  0  0
    0.7433    6.3895    0.0000 C   0  0  0  0  0  0  0  0  0  0  0  0
   -0.6856    8.0395    0.0000 C   0  0  0  0  0  0  0  0  0  0  0  0
    0.7433    8.0395    0.0000 C   0  0  0  0  0  0  0  0  0  0  0  0
   -1.4001    7.6270    0.0000 C   0  0  0  0  0  0  0  0  0  0  0  0
   -2.8521    4.0970    0.0000 C   0  0  0  0  0  0  0  0  0  0  0  0
   -1.9620    1.6363    0.0000 C   0  0  0  0  0  0  0  0  0  0  0  0
    1.4578    6.8020    0.0000 C   0  0  0  0  0  0  0  0  0  0  0  0
    1.4578    7.6270    0.0000 C   0  0  0  0  0  0  0  0  0  0  0  0
   -2.4469    0.9689    0.0000 C   0  0  0  0  0  0  0  0  0  0  0  0
   -2.5962   -0.4522    0.0000 C   0  0  0  0  0  0  0  0  0  0  0  0
   -2.2607   -1.2059    0.0000 C   0  0  0  0  0  0  0  0  0  0  0  0
   -3.4167   -0.3660    0.0000 C   0  0  0  0  0  0  0  0  0  0  0  0
   -2.7456   -1.8733    0.0000 C   0  0  0  0  0  0  0  0  0  0  0  0
   -3.9016   -1.0334    0.0000 C   0  0  0  0  0  0  0  0  0  0  0  0
   -3.5661   -1.7871    0.0000 C   0  0  0  0  0  0  0  0  0  0  0  0
  1  9  1  0
  1 20  1  0
  2 11  1  0
  2 13  1  0
  3 23  1  0
  3 24  1  0
  4 23  2  0
  5  8  1  0
  5  9  1  0
  5 19  1  0
  6  7  1  0
  6  8  2  0
  7  9  2  0
  8 13  1  0
 10 11  1  0
 10 12  1  0
 10 15  2  0
 11 14  2  0
 12 16  1  0
 12 17  2  0
 14 18  1  0
 15 21  1  0
 16 18  2  0
 17 22  1  0
 20 23  1  0
 21 22  2  0
 24 25  1  0
 24 26  1  0
 25 27  1  0
 26 28  1  0
 27 29  1  0
 28 29  1  0
M  END

> <chembl_id>
CHEMBL1440394

> <chembl_pref_name>
None

$$$$

     RDKit          2D

 34 38  0  0  0  0  0  0  0  0999 V2000
   13.9510  -15.8574    0.0000 C   0  0  0  0  0  0  0  0  0  0  0  0
   13.9510  -16.6856    0.0000 C   0  0  0  0  0  0  0  0  0  0  0  0
   15.3797  -16.6856    0.0000 C   0  0  0  0  0  0  0  0  0  0  0  0
   15.3797  -15.8574    0.0000 C   0  0  0  0  0  0  0  0  0  0  0  0
   14.6631  -15.4410    0.0000 C   0  0  0  0  0  0  0  0  0  0  0  0
   13.9417  -14.8302    0.0000 C   0  0  0  0  0  0  0  0  0  0  0  0
   15.3438  -14.8302    0.0000 C   0  0  0  0  0  0  0  0  0  0  0  0
   14.6608  -14.3820    0.0000 C   0  0  0  0  0  0  0  0  0  0  0  0
   14.6480  -14.7701    0.0000 N   0  0  0  0  0  0  0  0  0  0  0  0
   16.0959  -17.0985    0.0000 C   0  0  0  0  0  0  0  0  0  0  0  0
   16.0897  -17.9224    0.0000 C   0  0  0  0  0  0  0  0  0  0  0  0
   16.8003  -18.3351    0.0000 C   0  0  0  0  0  0  0  0  0  0  0  0
   17.5139  -17.9241    0.0000 C   0  0  0  0  0  0  0  0  0  0  0  0
   17.5123  -17.0962    0.0000 C   0  0  0  0  0  0  0  0  0  0  0  0
   16.8011  -16.6872    0.0000 C   0  0  0  0  0  0  0  0  0  0  0  0
   13.2352  -17.0958    0.0000 C   0  0  0  0  0  0  0  0  0  0  0  0
   12.5230  -16.6822    0.0000 C   0  0  0  0  0  0  0  0  0  0  0  0
   11.8115  -17.0935    0.0000 C   0  0  0  0  0  0  0  0  0  0  0  0
   11.8109  -17.9179    0.0000 C   0  0  0  0  0  0  0  0  0  0  0  0
   12.5281  -18.3296    0.0000 C   0  0  0  0  0  0  0  0  0  0  0  0
   13.2367  -17.9160    0.0000 C   0  0  0  0  0  0  0  0  0  0  0  0
   13.2553  -12.2250    0.0000 C   0  0  0  0  0  0  0  0  0  0  0  0
   13.2540  -13.0512    0.0000 C   0  0  0  0  0  0  0  0  0  0  0  0
   13.9692  -13.4635    0.0000 C   0  0  0  0  0  0  0  0  0  0  0  0
   14.6862  -13.0508    0.0000 C   0  0  0  0  0  0  0  0  0  0  0  0
   14.6830  -12.2210    0.0000 C   0  0  0  0  0  0  0  0  0  0  0  0
   13.9672  -11.8129    0.0000 C   0  0  0  0  0  0  0  0  0  0  0  0
   15.3986  -13.4619    0.0000 C   0  0  0  0  0  0  0  0  0  0  0  0
   15.4086  -14.3596    0.0000 O   0  0  0  0  0  0  0  0  0  0  0  0
   14.6629  -17.0979    0.0000 N   0  0  0  0  0  0  0  0  0  0  0  0
   11.0901  -18.3352    0.0000 O   0  0  0  0  0  0  0  0  0  0  0  0
   18.2353  -18.3404    0.0000 O   0  0  0  0  0  0  0  0  0  0  0  0
   11.0909  -19.1681    0.0000 C   0  0  0  0  0  0  0  0  0  0  0  0
   18.2357  -19.1733    0.0000 C   0  0  0  0  0  0  0  0  0  0  0  0
 16 17  2  0
  3  4  1  0
 17 18  1  0
  5  9  2  0
 18 19  2  0
  4  5  1  0
 19 20  1  0
  3 10  1  0
 20 21  2  0
 21 16  1  0
  2 16  1  0
  1  2  1  0
 10 11  2  0
 22 23  2  0
  1  6  1  0
 23 24  1  0
 11 12  1  0
 24 25  2  0
 25 26  1  0
 12 13  2  0
 26 27  2  0
 27 22  1  0
  4  7  1  0
 25 28  1  0
 13 14  1  0
 28 29  1  0
  9 29  1  0
  1  5  1  0
  2 30  1  0
 30  3  1  0
 14 15  2  0
 19 31  1  0
 15 10  1  0
 13 32  1  0
  6  8  1  0
 31 33  1  0
  7  8  1  0
 32 34  1  0
M  END

> <chembl_id>
CHEMBL1080664

> <chembl_pref_name>
None

$$$$

     RDKit          2D

 52 58  0  0  0  0  0  0  0  0999 V2000
   15.2007   -3.3149    0.0000 C   0  0  0  0  0  0  0  0  0  0  0  0
   15.6274   -4.0260    0.0000 C   0  0  0  0  0  0  0  0  0  0  0  0
   16.4528   -4.0073    0.0000 C   0  0  0  0  0  0  0  0  0  0  0  0
   16.8480   -3.2828    0.0000 C   0  0  0  0  0  0  0  0  0  0  0  0
   16.4156   -2.5756    0.0000 C   0  0  0  0  0  0  0  0  0  0  0  0
   15.5964   -2.5937    0.0000 C   0  0  0  0  0  0  0  0  0  0  0  0
   16.8110   -1.8515    0.0000 C   0  0  0  0  0  0  0  0  0  0  0  0
   16.3816   -1.1452    0.0000 C   0  0  0  0  0  0  0  0  0  0  0  0
   15.3188   -0.3402    0.0000 N   0  0  0  0  0  0  0  0  0  0  0  0
   14.6034    0.0665    0.0000 C   0  0  0  0  0  0  0  0  0  0  0  0
   13.8918   -0.3467    0.0000 C   0  0  0  0  0  0  0  0  0  0  0  0
   13.1766    0.0604    0.0000 N   0  0  0  0  0  0  0  0  0  0  0  0
   13.1447    0.8846    0.0000 C   0  0  0  0  0  0  0  0  0  0  0  0
   12.3483    1.1091    0.0000 C   0  0  0  0  0  0  0  0  0  0  0  0
   11.8902    0.4254    0.0000 C   0  0  0  0  0  0  0  0  0  0  0  0
   12.3950   -0.2225    0.0000 C   0  0  0  0  0  0  0  0  0  0  0  0
   11.9418   -0.9141    0.0000 C   0  0  0  0  0  0  0  0  0  0  0  0
   11.1912   -0.9123    0.0000 N   0  0  0  0  0  0  0  0  0  0  0  0
   14.6018    0.8936    0.0000 C   0  0  0  0  0  0  0  0  0  0  0  0
   14.1735    1.6007    0.0000 C   0  0  0  0  0  0  0  0  0  0  0  0
   14.5722    2.3204    0.0000 C   0  0  0  0  0  0  0  0  0  0  0  0
   14.1448    3.0224    0.0000 C   0  0  0  0  0  0  0  0  0  0  0  0
   13.3189    3.0065    0.0000 C   0  0  0  0  0  0  0  0  0  0  0  0
   12.9227    2.2776    0.0000 C   0  0  0  0  0  0  0  0  0  0  0  0
   13.3526    1.5743    0.0000 C   0  0  0  0  0  0  0  0  0  0  0  0
   15.5558   -1.1285    0.0000 C   0  0  0  0  0  0  0  0  0  0  0  0
   16.6591   -0.3729    0.0000 N   0  0  0  0  0  0  0  0  0  0  0  0
   16.0013    0.1297    0.0000 C   0  0  0  0  0  0  0  0  0  0  0  0
   16.0235    0.9545    0.0000 N   0  0  0  0  0  0  0  0  0  0  0  0
   10.7002   -0.2450    0.0000 C   0  0  0  0  0  0  0  0  0  0  0  0
    9.9195   -0.5020    0.0000 N   0  0  0  0  0  0  0  0  0  0  0  0
    9.9158   -1.3271    0.0000 C   0  0  0  0  0  0  0  0  0  0  0  0
   10.7016   -1.5777    0.0000 C   0  0  0  0  0  0  0  0  0  0  0  0
   11.1125   -2.2950    0.0000 C   0  0  0  0  0  0  0  0  0  0  0  0
   10.7030   -3.0087    0.0000 C   0  0  0  0  0  0  0  0  0  0  0  0
    9.8790   -3.0061    0.0000 C   0  0  0  0  0  0  0  0  0  0  0  0
    9.4650   -3.7188    0.0000 C   0  0  0  0  0  0  0  0  0  0  0  0
    9.8806   -4.4328    0.0000 C   0  0  0  0  0  0  0  0  0  0  0  0
   10.7058   -4.4289    0.0000 C   0  0  0  0  0  0  0  0  0  0  0  0
   11.1156   -3.7155    0.0000 C   0  0  0  0  0  0  0  0  0  0  0  0
   10.9538    0.5412    0.0000 N   0  0  0  0  0  0  0  0  0  0  0  0
   17.3816    0.0259    0.0000 C   0  0  0  0  0  0  0  0  0  0  0  0
   18.0855   -0.4002    0.0000 C   0  0  0  0  0  0  0  0  0  0  0  0
   18.0615   -1.2270    0.0000 C   0  0  0  0  0  0  0  0  0  0  0  0
   18.7654   -1.6529    0.0000 C   0  0  0  0  0  0  0  0  0  0  0  0
   19.4902   -1.2580    0.0000 C   0  0  0  0  0  0  0  0  0  0  0  0
   19.5063   -0.4321    0.0000 C   0  0  0  0  0  0  0  0  0  0  0  0
   18.8020   -0.0012    0.0000 C   0  0  0  0  0  0  0  0  0  0  0  0
   20.1923   -1.6870    0.0000 C   0  0  0  0  0  0  0  0  0  0  0  0
   20.1750   -2.5117    0.0000 C   0  0  0  0  0  0  0  0  0  0  0  0
   20.9162   -1.2912    0.0000 C   0  0  0  0  0  0  0  0  0  0  0  0
   20.9038   -2.1013    0.0000 C   0  0  0  0  0  0  0  0  0  0  0  0
  9 26  1  0
  6  1  1  0
  1  2  2  0
  5  7  1  0
 26  8  1  0
  8 27  1  0
 27 28  1  0
 28  9  1  0
  3  4  2  0
 28 29  2  0
 18 30  1  0
 13 14  1  0
 14 15  1  0
 15 16  1  0
 16 12  1  0
 30 31  1  0
 31 32  1  0
 32 33  1  0
 33 18  1  0
  8  7  1  1
 33 34  1  1
 16 17  1  0
 34 35  1  0
 35 36  2  0
 17 18  1  0
 36 37  1  0
  4  5  1  0
 37 38  2  0
 10 19  1  6
 38 39  1  0
  9 10  1  0
 39 40  2  0
 40 35  1  0
 19 20  1  0
 30 41  2  0
  2  3  1  0
 27 42  1  0
 20 21  2  0
 42 43  1  0
 43 44  1  0
 10 11  1  0
 21 22  1  0
  5  6  2  0
 22 23  2  0
 11 12  1  0
 43 48  1  0
 44 45  1  0
 45 46  1  0
 46 47  1  0
 47 48  1  0
 23 24  1  0
 46 49  1  0
 12 13  1  0
 49 50  1  0
 24 25  2  0
 49 51  1  0
 25 20  1  0
 49 52  1  0
M  END

> <chembl_id>
CHEMBL1077694

> <chembl_pref_name>
None

$$$$

     RDKit          2D

 24 26  0  0  0  0  0  0  0  0999 V2000
    9.1960  -23.4480    0.0000 O   0  0  0  0  0  0  0  0  0  0  0  0
    9.6718  -22.7762    0.0000 C   0  0  0  0  0  0  0  0  0  0  0  0
    9.2879  -22.0459    0.0000 C   0  0  0  0  0  0  0  0  0  0  0  0
    8.4981  -21.8094    0.0000 C   0  0  0  0  0  0  0  0  0  0  0  0
    7.8392  -22.3082    0.0000 O   0  0  0  0  0  0  0  0  0  0  0  0
    8.4809  -20.9834    0.0000 C   0  0  0  0  0  0  0  0  0  0  0  0
    7.8010  -20.5133    0.0000 O   0  0  0  0  0  0  0  0  0  0  0  0
    9.2567  -20.7108    0.0000 C   0  0  0  0  0  0  0  0  0  0  0  0
    9.7577  -21.3661    0.0000 O   0  0  0  0  0  0  0  0  0  0  0  0
    9.4971  -19.9234    0.0000 N   0  0  0  0  0  0  0  0  0  0  0  0
    8.9982  -19.2644    0.0000 C   0  0  0  0  0  0  0  0  0  0  0  0
    9.4663  -18.5881    0.0000 N   0  0  0  0  0  0  0  0  0  0  0  0
   10.2557  -18.8248    0.0000 C   0  0  0  0  0  0  0  0  0  0  0  0
   10.9618  -18.3958    0.0000 C   0  0  0  0  0  0  0  0  0  0  0  0
   10.9426  -17.5734    0.0000 N   0  0  0  0  0  0  0  0  0  0  0  0
   11.6849  -18.7928    0.0000 N   0  0  0  0  0  0  0  0  0  0  0  0
   11.7020  -19.6187    0.0000 C   0  0  0  0  0  0  0  0  0  0  0  0
   10.9960  -20.0478    0.0000 N   0  0  0  0  0  0  0  0  0  0  0  0
   10.2728  -19.6508    0.0000 C   0  0  0  0  0  0  0  0  0  0  0  0
    9.5999  -24.1674    0.0000 C   0  0  0  0  0  0  0  0  0  0  0  0
    9.1788  -24.8767    0.0000 N   0  0  0  0  0  0  0  0  0  0  0  0
   10.4247  -24.1773    0.0000 O   0  0  0  0  0  0  0  0  0  0  0  0
    8.3539  -24.8668    0.0000 C   0  0  0  0  0  0  0  0  0  0  0  0
    7.9329  -25.5763    0.0000 C   0  0  0  0  0  0  0  0  0  0  0  0
  4  6  1  0
  6  7  1  1
  6  8  1  0
  8  9  1  0
  3  9  1  0
  8 10  1  6
 10 11  1  0
 11 12  2  0
 12 13  1  0
 13 14  1  0
 14 15  1  0
 14 16  2  0
 16 17  1  0
 17 18  2  0
 18 19  1  0
 13 19  2  0
 10 19  1  0
  1 20  1  0
  1  2  1  0
 20 21  1  0
  3  2  1  6
 20 22  2  0
  3  4  1  0
 21 23  1  0
  4  5  1  1
 23 24  1  0
M  END

> <chembl_id>
CHEMBL1096694

> <chembl_pref_name>
None

$$$$

     RDKit          2D

 60 57  0  0  0  0  0  0  0  0999 V2000
    9.1545   -7.2833    0.0000 O   0  0  0  0  0  0  0  0  0  0  0  0
   11.3367   -6.8541    0.0000 F   0  0  0  0  0  0  0  0  0  0  0  0
   11.3407   -7.7041    0.0000 F   0  0  0  0  0  0  0  0  0  0  0  0
   10.6120   -7.2833    0.0000 C   0  0  0  0  0  0  0  0  0  0  0  0
   10.6120   -6.4418    0.0000 F   0  0  0  0  0  0  0  0  0  0  0  0
    9.8832   -8.5456    0.0000 O   0  0  0  0  0  0  0  0  0  0  0  0
    9.8832   -7.7041    0.0000 C   0  0  0  0  0  0  0  0  0  0  0  0
   19.2366   -8.5619    0.0000 C   0  0  0  0  0  0  0  0  0  0  0  0
   19.2366   -9.4033    0.0000 O   0  0  0  0  0  0  0  0  0  0  0  0
   19.9653   -7.2996    0.0000 F   0  0  0  0  0  0  0  0  0  0  0  0
   19.9653   -8.1411    0.0000 C   0  0  0  0  0  0  0  0  0  0  0  0
   20.6942   -8.5619    0.0000 F   0  0  0  0  0  0  0  0  0  0  0  0
   18.5079   -8.1411    0.0000 O   0  0  0  0  0  0  0  0  0  0  0  0
   20.6902   -7.7118    0.0000 F   0  0  0  0  0  0  0  0  0  0  0  0
   17.8538  -15.3376    0.0000 O   0  0  0  0  0  0  0  0  0  0  0  0
   16.3962  -10.6753    0.0000 O   0  0  0  0  0  0  0  0  0  0  0  0
   11.2948  -10.2885    0.0000 C   0  0  0  0  0  0  0  0  0  0  0  0
   10.5659  -11.4530    0.0000 O   0  0  0  0  0  0  0  0  0  0  0  0
   16.3962  -15.3376    0.0000 O   0  0  0  0  0  0  0  0  0  0  0  0
   10.5659  -10.6753    0.0000 C   0  0  0  0  0  0  0  0  0  0  0  0
    9.1085  -10.6753    0.0000 C   0  0  0  0  0  0  0  0  0  0  0  0
   12.0236  -10.6753    0.0000 N   0  0  0  0  0  0  0  0  0  0  0  0
   15.6675   -7.9595    0.0000 C   0  0  0  0  0  0  0  0  0  0  0  0
   16.3962  -11.4530    0.0000 C   0  0  0  0  0  0  0  0  0  0  0  0
    7.6509  -10.6753    0.0000 C   0  0  0  0  0  0  0  0  0  0  0  0
   16.3962  -13.7822    0.0000 C   0  0  0  0  0  0  0  0  0  0  0  0
   14.9387   -9.1240    0.0000 C   0  0  0  0  0  0  0  0  0  0  0  0
   17.1251  -14.9465    0.0000 C   0  0  0  0  0  0  0  0  0  0  0  0
   14.2100   -9.5107    0.0000 C   0  0  0  0  0  0  0  0  0  0  0  0
    5.4645  -10.2885    0.0000 C   0  0  0  0  0  0  0  0  0  0  0  0
   15.6675   -7.1817    0.0000 C   0  0  0  0  0  0  0  0  0  0  0  0
   15.6675  -11.8397    0.0000 C   0  0  0  0  0  0  0  0  0  0  0  0
   17.1251   -5.6261    0.0000 C   0  0  0  0  0  0  0  0  0  0  0  0
   13.4811  -10.6753    0.0000 C   0  0  0  0  0  0  0  0  0  0  0  0
   16.3962  -13.0043    0.0000 C   0  0  0  0  0  0  0  0  0  0  0  0
   14.2100  -10.2885    0.0000 C   0  0  0  0  0  0  0  0  0  0  0  0
   12.7524  -11.8397    0.0000 C   0  0  0  0  0  0  0  0  0  0  0  0
   11.2948  -12.6176    0.0000 O   0  0  0  0  0  0  0  0  0  0  0  0
   16.3962   -6.0171    0.0000 C   0  0  0  0  0  0  0  0  0  0  0  0
    4.7358  -10.6753    0.0000 C   0  0  0  0  0  0  0  0  0  0  0  0
   14.9387  -11.4530    0.0000 N   0  0  0  0  0  0  0  0  0  0  0  0
   16.3962   -6.7906    0.0000 C   0  0  0  0  0  0  0  0  0  0  0  0
   12.7524  -10.2885    0.0000 C   0  0  0  0  0  0  0  0  0  0  0  0
   17.1251  -11.8397    0.0000 O   0  0  0  0  0  0  0  0  0  0  0  0
   17.1251  -14.1731    0.0000 C   0  0  0  0  0  0  0  0  0  0  0  0
   11.2948  -11.8397    0.0000 C   0  0  0  0  0  0  0  0  0  0  0  0
   17.8538  -13.7822    0.0000 N   0  0  0  0  0  0  0  0  0  0  0  0
    6.9221  -10.2885    0.0000 C   0  0  0  0  0  0  0  0  0  0  0  0
    3.2782  -10.6753    0.0000 C   0  0  0  0  0  0  0  0  0  0  0  0
   17.1508   -4.8015    0.0000 C   0  0  0  0  0  0  0  0  0  0  0  0
   13.4811  -11.4530    0.0000 C   0  0  0  0  0  0  0  0  0  0  0  0
    6.1934  -10.6753    0.0000 C   0  0  0  0  0  0  0  0  0  0  0  0
   14.2100  -11.8397    0.0000 C   0  0  0  0  0  0  0  0  0  0  0  0
    4.0070  -10.2885    0.0000 C   0  0  0  0  0  0  0  0  0  0  0  0
   14.2100  -12.6176    0.0000 O   0  0  0  0  0  0  0  0  0  0  0  0
   14.9387   -8.3461    0.0000 C   0  0  0  0  0  0  0  0  0  0  0  0
   12.0236  -11.4530    0.0000 C   0  0  0  0  0  0  0  0  0  0  0  0
    8.3797  -10.2885    0.0000 C   0  0  0  0  0  0  0  0  0  0  0  0
   15.6675  -12.6176    0.0000 C   0  0  0  0  0  0  0  0  0  0  0  0
    9.8372  -10.2885    0.0000 C   0  0  0  0  0  0  0  0  0  0  0  0
  7  4  1  0
  4  2  1  0
  4  5  1  0
  4  3  1  0
  7  1  1  0
  7  6  2  0
 11 14  1  0
  8 13  1  0
  8  9  2  0
 11 12  1  0
  8 11  1  0
 11 10  1  0
 42 39  1  0
 34 36  1  0
 26 45  1  0
 59 35  2  0
 52 30  1  0
 51 53  1  0
 57 37  1  0
 57 22  1  6
 27 56  1  0
 20 60  1  0
 54 49  1  0
 29 27  1  0
 48 52  1  0
 24 44  1  0
 45 28  1  0
 28 19  1  0
 43 34  1  0
 37 51  1  0
 36 29  1  0
 22 17  1  0
 33 50  1  0
 53 55  2  0
 46 18  1  0
 23 31  1  0
 35 26  1  0
 32 41  1  6
 28 15  2  0
 40 54  1  0
 45 47  1  1
 32 24  1  0
 56 23  1  0
 22 43  1  0
 21 58  1  0
 31 42  1  0
 60 21  1  0
 46 38  2  0
 17 20  1  0
 39 33  1  0
 30 40  1  0
 53 41  1  0
 46 57  1  0
 32 59  1  0
 24 16  2  0
 25 48  1  0
 58 25  1  0
M  END

> <chembl_id>
CHEMBL2434991

> <chembl_pref_name>
None

$$$$

     RDKit          2D

 12 11  0  0  0  0  0  0  0  0999 V2000
    0.0042   -6.1875    0.0000 C   0  0  0  0  0  0  0  0  0  0  0  0
    1.2417   -6.1875    0.0000 C   0  0  0  0  0  0  0  0  0  0  0  0
    0.6250   -5.8292    0.0000 C   0  0  0  0  0  0  0  0  0  0  0  0
   -0.6000   -5.8292    0.0000 F   0  0  0  0  0  0  0  0  0  0  0  0
    1.8542   -5.8292    0.0000 F   0  0  0  0  0  0  0  0  0  0  0  0
    1.5917   -6.8000    0.0000 F   0  0  0  0  0  0  0  0  0  0  0  0
    0.8875   -6.8000    0.0000 F   0  0  0  0  0  0  0  0  0  0  0  0
    0.3542   -6.8000    0.0000 F   0  0  0  0  0  0  0  0  0  0  0  0
   -0.3500   -6.8000    0.0000 F   0  0  0  0  0  0  0  0  0  0  0  0
    0.6167   -5.1750    0.0000 O   0  0  0  0  0  0  0  0  0  0  0  0
    0.0042   -4.8375    0.0000 C   0  0  0  0  0  0  0  0  0  0  0  0
   -0.5875   -5.2250    0.0000 F   0  0  0  0  0  0  0  0  0  0  0  0
  2  3  1  0
  3  1  1  0
  4  1  1  0
  5  2  1  0
  6  2  1  0
  7  2  1  0
  8  1  1  0
  9  1  1  0
 10  3  1  0
 11 10  1  0
 12 11  1  0
M  END

> <chembl_id>
CHEMBL1200694

> <chembl_pref_name>
SEVOFLURANE

$$$$

     RDKit          2D

 10 10  0  0  0  0  0  0  0  0999 V2000
    1.2990   -0.7500    0.0000 C   0  0  0  0  0  0  0  0  0  0  0  0
    0.0000   -1.5000    0.0000 N   0  0  0  0  0  0  0  0  0  0  0  0
   -1.2990   -0.7500    0.0000 C   0  0  0  0  0  0  0  0  0  0  0  0
   -1.2990    0.7500    0.0000 C   0  0  0  0  0  0  0  0  0  0  0  0
    0.0000    1.5000    0.0000 C   0  0  0  0  0  0  0  0  0  0  0  0
    1.2990    0.7500    0.0000 C   0  0  0  0  0  0  0  0  0  0  0  0
   -0.0031    3.0008    0.0000 C   0  0  0  0  0  0  0  0  0  0  0  0
   -1.3039    3.7494    0.0000 N   0  0  0  0  0  0  0  0  0  0  0  0
    1.0351    3.6026    0.0000 O   0  0  0  0  0  0  0  0  0  0  0  0
   -1.3064    4.9494    0.0000 N   0  0  0  0  0  0  0  0  0  0  0  0
  2  3  1  0
  5  6  2  0
  6  1  1  0
  1  2  2  0
  5  7  1  0
  3  4  2  0
  7  8  1  0
  7  9  2  0
  4  5  1  0
  8 10  1  0
M  END

> <chembl_id>
CHEMBL64

> <chembl_pref_name>
ISONIAZID

$$$$

     RDKit          2D

 30 33  0  0  0  0  0  0  0  0999 V2000
    6.1717   -0.7920    0.0000 Br  0  0  0  0  0  0  0  0  0  0  0  0
    6.9872    0.8579    0.0000 Br  0  0  0  0  0  0  0  0  0  0  0  0
    2.9852   -0.4382    0.0000 O   0  0  0  0  0  0  0  0  0  0  0  0
    4.3907    2.1032    0.0000 O   0  0  0  0  0  0  0  0  0  0  0  0
    0.6293    0.8912    0.0000 O   0  0  0  0  0  0  0  0  0  0  0  0
    1.3209    2.1417    0.0000 O   0  0  0  0  0  0  0  0  0  0  0  0
   -0.7842    0.0401    0.0000 O   0  0  0  0  0  0  0  0  0  0  0  0
   -3.6871    2.4621    0.0000 O   0  0  0  0  0  0  0  0  0  0  0  0
    3.4867    0.9438    0.0000 N   0  0  0  0  0  0  0  0  0  0  0  0
    4.3980   -0.0316    0.0000 C   0  0  0  0  0  0  0  0  0  0  0  0
    4.7973    0.6904    0.0000 C   0  0  0  0  0  0  0  0  0  0  0  0
    5.1735    0.3587    0.0000 C   0  0  0  0  0  0  0  0  0  0  0  0
    5.4036    1.0791    0.0000 C   0  0  0  0  0  0  0  0  0  0  0  0
    3.5880    0.1251    0.0000 C   0  0  0  0  0  0  0  0  0  0  0  0
    4.2341    1.2932    0.0000 C   0  0  0  0  0  0  0  0  0  0  0  0
    5.9040   -0.0116    0.0000 C   0  0  0  0  0  0  0  0  0  0  0  0
    6.1991    0.6138    0.0000 C   0  0  0  0  0  0  0  0  0  0  0  0
    5.2436    1.8945    0.0000 C   0  0  0  0  0  0  0  0  0  0  0  0
    2.7648    1.3431    0.0000 C   0  0  0  0  0  0  0  0  0  0  0  0
    2.0580    0.9175    0.0000 C   0  0  0  0  0  0  0  0  0  0  0  0
    1.3361    1.3168    0.0000 C   0  0  0  0  0  0  0  0  0  0  0  0
   -1.5213    1.2642    0.0000 C   0  0  0  0  0  0  0  0  0  0  0  0
   -0.7994    0.8649    0.0000 C   0  0  0  0  0  0  0  0  0  0  0  0
   -0.0926    1.2905    0.0000 C   0  0  0  0  0  0  0  0  0  0  0  0
   -2.2281    0.8386    0.0000 C   0  0  0  0  0  0  0  0  0  0  0  0
   -1.5365    2.0891    0.0000 C   0  0  0  0  0  0  0  0  0  0  0  0
   -2.9652    2.0628    0.0000 C   0  0  0  0  0  0  0  0  0  0  0  0
   -2.9500    1.2379    0.0000 C   0  0  0  0  0  0  0  0  0  0  0  0
   -2.2584    2.4884    0.0000 C   0  0  0  0  0  0  0  0  0  0  0  0
   -4.3939    2.0365    0.0000 C   0  0  0  0  0  0  0  0  0  0  0  0
  1 16  1  0
  2 17  1  0
  3 14  2  0
  4 15  2  0
  5 21  1  0
  5 24  1  0
  6 21  2  0
  7 23  2  0
  8 27  1  0
  8 30  1  0
  9 14  1  0
  9 15  1  0
  9 19  1  0
 10 11  1  0
 10 12  1  0
 10 14  1  0
 11 13  1  0
 11 15  1  0
 12 16  1  0
 12 18  1  0
 13 17  1  0
 13 18  1  0
 16 17  1  0
 19 20  1  0
 20 21  1  0
 22 23  1  0
 22 25  2  0
 22 26  1  0
 23 24  1  0
 25 28  1  0
 26 29  2  0
 27 28  2  0
 27 29  1  0
M  END

> <chembl_id>
CHEMBL1440696

> <chembl_pref_name>
None

$$$$

     RDKit          2D

 20 22  0  0  0  0  0  0  0  0999 V2000
   -0.7076    2.8042    0.0000 N   0  0  0  0  0  0  0  0  0  0  0  0
   -0.7076    0.3292    0.0000 N   0  0  0  0  0  0  0  0  0  0  0  0
    0.0069    1.5667    0.0000 C   0  0  0  0  0  0  0  0  0  0  0  0
   -0.7076    1.1542    0.0000 C   0  0  0  0  0  0  0  0  0  0  0  0
    0.0069    2.3917    0.0000 C   0  0  0  0  0  0  0  0  0  0  0  0
   -1.4221    1.5667    0.0000 C   0  0  0  0  0  0  0  0  0  0  0  0
    0.7214    1.1542    0.0000 C   0  0  0  0  0  0  0  0  0  0  0  0
   -1.4221    2.3917    0.0000 C   0  0  0  0  0  0  0  0  0  0  0  0
    0.7214    2.8042    0.0000 C   0  0  0  0  0  0  0  0  0  0  0  0
    1.4358    1.5667    0.0000 C   0  0  0  0  0  0  0  0  0  0  0  0
   -1.4221   -0.0833    0.0000 C   0  0  0  0  0  0  0  0  0  0  0  0
    1.4358    2.3917    0.0000 C   0  0  0  0  0  0  0  0  0  0  0  0
   -1.4221   -0.9083    0.0000 C   0  0  0  0  0  0  0  0  0  0  0  0
   -2.1365    0.3292    0.0000 C   0  0  0  0  0  0  0  0  0  0  0  0
   -2.1365    2.8042    0.0000 C   0  0  0  0  0  0  0  0  0  0  0  0
   -2.8510   -0.9083    0.0000 C   0  0  0  0  0  0  0  0  0  0  0  0
   -2.1365   -1.3208    0.0000 C   0  0  0  0  0  0  0  0  0  0  0  0
   -2.8510   -0.0833    0.0000 C   0  0  0  0  0  0  0  0  0  0  0  0
    2.1503    1.1542    0.0000 C   0  0  0  0  0  0  0  0  0  0  0  0
   -3.5655   -1.3208    0.0000 C   0  0  0  0  0  0  0  0  0  0  0  0
  1  5  1  0
  1  8  2  0
  2  4  1  0
  2 11  1  0
  3  4  1  0
  3  5  1  0
  3  7  2  0
  4  6  2  0
  5  9  2  0
  6  8  1  0
  7 10  1  0
  8 15  1  0
  9 12  1  0
 10 12  2  0
 10 19  1  0
 11 13  2  0
 11 14  1  0
 13 17  1  0
 14 18  2  0
 16 17  2  0
 16 18  1  0
 16 20  1  0
M  END

> <chembl_id>
CHEMBL1300694

> <chembl_pref_name>
None

$$$$

     RDKit          2D

 83 89  0  0  0  0  0  0  0  0999 V2000
   10.6143   -4.9358    0.0000 C   0  0  0  0  0  0  0  0  0  0  0  0
    9.9018   -4.5358    0.0000 C   0  0  0  0  0  0  0  0  0  0  0  0
   10.6234   -5.7542    0.0000 O   0  0  0  0  0  0  0  0  0  0  0  0
   11.3178   -4.5176    0.0000 O   0  0  0  0  0  0  0  0  0  0  0  0
    9.8920   -3.7186    0.0000 F   0  0  0  0  0  0  0  0  0  0  0  0
    9.1990   -4.9528    0.0000 F   0  0  0  0  0  0  0  0  0  0  0  0
    9.1913   -4.1254    0.0000 F   0  0  0  0  0  0  0  0  0  0  0  0
   16.6572   -7.0887    0.0000 C   0  0  0  0  0  0  0  0  0  0  0  0
    3.6370   -2.3605    0.0000 C   0  0  0  0  0  0  0  0  0  0  0  0
   14.0212   -5.9271    0.0000 N   0  0  0  0  0  0  0  0  0  0  0  0
    2.5917   -5.3383    0.0000 C   0  0  0  0  0  0  0  0  0  0  0  0
    6.8656   -6.7620    0.0000 C   0  0  0  0  0  0  0  0  0  0  0  0
   14.7376   -5.5138    0.0000 C   0  0  0  0  0  0  0  0  0  0  0  0
    5.4351   -6.7640    0.0000 C   0  0  0  0  0  0  0  0  0  0  0  0
   11.8780   -7.9925    0.0000 O   0  0  0  0  0  0  0  0  0  0  0  0
    2.2590   -6.0935    0.0000 C   0  0  0  0  0  0  0  0  0  0  0  0
   12.5915   -5.9271    0.0000 C   0  0  0  0  0  0  0  0  0  0  0  0
   16.2115   -5.7240    0.0000 C   0  0  0  0  0  0  0  0  0  0  0  0
   13.3084   -5.5076    0.0000 C   0  0  0  0  0  0  0  0  0  0  0  0
    2.1089   -4.6715    0.0000 C   0  0  0  0  0  0  0  0  0  0  0  0
    7.5867   -7.9986    0.0000 C   0  0  0  0  0  0  0  0  0  0  0  0
    9.7767   -7.6581    0.0000 C   0  0  0  0  0  0  0  0  0  0  0  0
    4.6323   -4.7019    0.0000 C   0  0  0  0  0  0  0  0  0  0  0  0
   16.5527   -3.5491    0.0000 O   0  0  0  0  0  0  0  0  0  0  0  0
   15.1345   -3.3484    0.0000 C   0  0  0  0  0  0  0  0  0  0  0  0
   10.0352   -8.4434    0.0000 C   0  0  0  0  0  0  0  0  0  0  0  0
    9.0172   -7.9966    0.0000 O   0  0  0  0  0  0  0  0  0  0  0  0
    5.2454   -4.1502    0.0000 O   0  0  0  0  0  0  0  0  0  0  0  0
   12.5915   -6.7537    0.0000 N   0  0  0  0  0  0  0  0  0  0  0  0
    4.7181   -5.5233    0.0000 N   0  0  0  0  0  0  0  0  0  0  0  0
   16.1001   -4.2408    0.0000 C   0  0  0  0  0  0  0  0  0  0  0  0
    9.7306   -6.7579    0.0000 C   0  0  0  0  0  0  0  0  0  0  0  0
   10.8617   -8.4434    0.0000 C   0  0  0  0  0  0  0  0  0  0  0  0
   15.2505   -6.7866    0.0000 C   0  0  0  0  0  0  0  0  0  0  0  0
    3.9721   -3.1140    0.0000 C   0  0  0  0  0  0  0  0  0  0  0  0
   11.8768   -7.1659    0.0000 C   0  0  0  0  0  0  0  0  0  0  0  0
   15.2950   -4.1333    0.0000 C   0  0  0  0  0  0  0  0  0  0  0  0
   13.3084   -7.1606    0.0000 C   0  0  0  0  0  0  0  0  0  0  0  0
   15.4292   -5.9819    0.0000 C   0  0  0  0  0  0  0  0  0  0  0  0
    2.6664   -3.6987    0.0000 C   0  0  0  0  0  0  0  0  0  0  0  0
    2.8109   -2.2716    0.0000 C   0  0  0  0  0  0  0  0  0  0  0  0
    2.3275   -2.9454    0.0000 C   0  0  0  0  0  0  0  0  0  0  0  0
   11.1118   -7.6581    0.0000 C   0  0  0  0  0  0  0  0  0  0  0  0
    6.8644   -5.9355    0.0000 O   0  0  0  0  0  0  0  0  0  0  0  0
    6.1509   -7.1742    0.0000 N   0  0  0  0  0  0  0  0  0  0  0  0
    3.7952   -6.6714    0.0000 O   0  0  0  0  0  0  0  0  0  0  0  0
    3.4136   -5.2502    0.0000 N   0  0  0  0  0  0  0  0  0  0  0  0
    7.5856   -7.1721    0.0000 C   0  0  0  0  0  0  0  0  0  0  0  0
   14.6880   -4.6697    0.0000 C   0  0  0  0  0  0  0  0  0  0  0  0
   10.4464   -7.1680    0.0000 C   0  0  0  0  0  0  0  0  0  0  0  0
   16.5165   -4.9167    0.0000 N   0  0  0  0  0  0  0  0  0  0  0  0
    3.8238   -4.5344    0.0000 N   0  0  0  0  0  0  0  0  0  0  0  0
   13.9268   -4.4129    0.0000 C   0  0  0  0  0  0  0  0  0  0  0  0
   13.7661   -3.6242    0.0000 C   0  0  0  0  0  0  0  0  0  0  0  0
   11.1611   -6.7558    0.0000 C   0  0  0  0  0  0  0  0  0  0  0  0
    1.2889   -4.7520    0.0000 C   0  0  0  0  0  0  0  0  0  0  0  0
    8.3002   -6.7599    0.0000 N   0  0  0  0  0  0  0  0  0  0  0  0
    3.4890   -3.7802    0.0000 C   0  0  0  0  0  0  0  0  0  0  0  0
    5.4340   -5.9375    0.0000 C   0  0  0  0  0  0  0  0  0  0  0  0
   16.8241   -6.2795    0.0000 C   0  0  0  0  0  0  0  0  0  0  0  0
    0.9520   -5.5100    0.0000 C   0  0  0  0  0  0  0  0  0  0  0  0
   14.3727   -3.0887    0.0000 C   0  0  0  0  0  0  0  0  0  0  0  0
   15.8707   -7.3395    0.0000 C   0  0  0  0  0  0  0  0  0  0  0  0
    9.0160   -7.1701    0.0000 C   0  0  0  0  0  0  0  0  0  0  0  0
    3.9661   -5.8626    0.0000 C   0  0  0  0  0  0  0  0  0  0  0  0
    1.4380   -6.1818    0.0000 C   0  0  0  0  0  0  0  0  0  0  0  0
   14.0212   -6.7537    0.0000 C   0  0  0  0  0  0  0  0  0  0  0  0
    8.2998   -8.4090    0.0000 C   0  0  0  0  0  0  0  0  0  0  0  0
    8.3010   -9.2318    0.0000 C   0  0  0  0  0  0  0  0  0  0  0  0
    9.0140   -9.6423    0.0000 N   0  0  0  0  0  0  0  0  0  0  0  0
    9.0151  -10.4651    0.0000 C   0  0  0  0  0  0  0  0  0  0  0  0
    9.7282  -10.8754    0.0000 N   0  0  0  0  0  0  0  0  0  0  0  0
    8.3032  -10.8774    0.0000 N   0  0  0  0  0  0  0  0  0  0  0  0
   10.4402  -10.4631    0.0000 C   0  0  0  0  0  0  0  0  0  0  0  0
   11.1533  -10.8735    0.0000 N   0  0  0  0  0  0  0  0  0  0  0  0
   10.4391   -9.6404    0.0000 O   0  0  0  0  0  0  0  0  0  0  0  0
   11.8653  -10.4611    0.0000 C   0  0  0  0  0  0  0  0  0  0  0  0
   12.5784  -10.8716    0.0000 C   0  0  0  0  0  0  0  0  0  0  0  0
   13.2904  -10.4592    0.0000 C   0  0  0  0  0  0  0  0  0  0  0  0
   14.0035  -10.8697    0.0000 C   0  0  0  0  0  0  0  0  0  0  0  0
   14.7155  -10.4573    0.0000 C   0  0  0  0  0  0  0  0  0  0  0  0
   15.4286  -10.8677    0.0000 C   0  0  0  0  0  0  0  0  0  0  0  0
   16.1406  -10.4554    0.0000 N   0  0  0  0  0  0  0  0  0  0  0  0
  1  2  1  0
  1  3  2  0
  1  4  1  0
  2  5  1  0
  2  6  1  0
  2  7  1  0
 12 45  1  0
 47 52  1  0
 13 39  1  0
 56 20  2  0
 59 30  1  0
 25 37  1  0
 31 24  2  0
 64 57  1  0
 67 38  1  0
 29 36  1  0
 32 64  1  0
 45 14  1  0
 23 28  2  0
 30 65  1  0
 65 46  2  0
 57 48  1  0
 60  8  2  0
 37 49  2  0
 23 30  1  0
 48 21  1  1
 39 18  2  0
 63 34  2  0
 52 23  1  0
 52 58  1  0
 34 39  1  0
 41  9  1  0
 36 55  1  0
 10 19  1  0
 13 49  1  0
 49 53  1  0
 26 22  1  0
 54 62  1  0
 61 56  1  0
  9 35  2  0
 55 50  1  0
 43 33  1  0
 22 50  1  0
 12 44  2  0
 29 17  1  0
 16 66  1  0
 51 31  1  0
 35 58  1  0
 33 26  1  0
 18 51  1  0
 66 61  2  0
 65 47  1  0
 36 15  2  0
 17 19  1  0
  8 63  1  0
 10 67  1  0
 58 40  2  0
 64 27  2  0
 11 16  2  0
 47 11  1  0
 50 32  1  0
 38 29  1  0
 18 60  1  0
 14 59  1  0
 50 43  1  0
 31 37  1  0
 62 25  2  0
 42 41  2  0
 40 42  1  0
 48 12  1  0
 10 13  1  0
 53 54  2  0
 20 11  1  0
 21 68  1  0
 68 69  1  0
 69 70  1  0
 70 71  1  0
 71 72  2  0
 71 73  1  0
 72 74  1  0
 74 75  1  0
 74 76  2  0
 75 77  1  0
 77 78  1  0
 78 79  1  0
 79 80  1  0
 80 81  1  0
 81 82  1  0
 82 83  1  0
M  END

> <chembl_id>
CHEMBL2440922

> <chembl_pref_name>
None

$$$$

     RDKit          2D

 16 17  0  0  0  0  0  0  0  0999 V2000
   -0.5361   -2.1039    0.0000 O   0  0  0  0  0  0  0  0  0  0  0  0
   -1.9651    0.3711    0.0000 O   0  0  0  0  0  0  0  0  0  0  0  0
   -1.9651   -1.2789    0.0000 O   0  0  0  0  0  0  0  0  0  0  0  0
   -0.5361    0.3711    0.0000 N   0  0  0  0  0  0  0  0  0  0  0  0
    0.1783   -0.0414    0.0000 N   0  0  0  0  0  0  0  0  0  0  0  0
   -1.2506   -0.0414    0.0000 C   0  0  0  0  0  0  0  0  0  0  0  0
   -1.2506   -0.8664    0.0000 C   0  0  0  0  0  0  0  0  0  0  0  0
   -0.5361   -1.2789    0.0000 C   0  0  0  0  0  0  0  0  0  0  0  0
   -0.5361    1.1961    0.0000 C   0  0  0  0  0  0  0  0  0  0  0  0
    0.1783   -0.8664    0.0000 C   0  0  0  0  0  0  0  0  0  0  0  0
   -1.2506    1.6086    0.0000 C   0  0  0  0  0  0  0  0  0  0  0  0
    0.1783    1.6086    0.0000 C   0  0  0  0  0  0  0  0  0  0  0  0
   -1.2506    2.4336    0.0000 C   0  0  0  0  0  0  0  0  0  0  0  0
    0.1783    2.4336    0.0000 C   0  0  0  0  0  0  0  0  0  0  0  0
   -0.5361    2.8461    0.0000 C   0  0  0  0  0  0  0  0  0  0  0  0
    0.1783   -2.5164    0.0000 C   0  0  0  0  0  0  0  0  0  0  0  0
  1  8  1  0
  1 16  1  0
  2  6  2  0
  3  7  1  0
  4  5  1  0
  4  6  1  0
  4  9  1  0
  5 10  2  0
  6  7  1  0
  7  8  2  0
  8 10  1  0
  9 11  1  0
  9 12  1  0
 11 13  1  0
 12 14  1  0
 13 15  1  0
 14 15  1  0
M  END

> <chembl_id>
CHEMBL1340684

> <chembl_pref_name>
None

$$$$

     RDKit          2D

 21 23  0  0  0  0  0  0  0  0999 V2000
    0.4398   -3.1089    0.0000 Cl  0  0  0  0  0  0  0  0  0  0  0  0
   -0.1922   -4.2036    0.0000 Cl  0  0  0  0  0  0  0  0  0  0  0  0
   -4.6331   -0.8649    0.0000 Cl  0  0  0  0  0  0  0  0  0  0  0  0
   -1.1206   -1.1820    0.0000 O   0  0  0  0  0  0  0  0  0  0  0  0
   -2.0430   -2.0727    0.0000 N   0  0  0  0  0  0  0  0  0  0  0  0
   -2.1675   -0.6492    0.0000 N   0  0  0  0  0  0  0  0  0  0  0  0
   -0.7479   -2.6766    0.0000 C   0  0  0  0  0  0  0  0  0  0  0  0
   -0.3354   -3.3911    0.0000 C   0  0  0  0  0  0  0  0  0  0  0  0
   -1.1604   -3.3911    0.0000 C   0  0  0  0  0  0  0  0  0  0  0  0
   -0.2747   -2.0008    0.0000 C   0  0  0  0  0  0  0  0  0  0  0  0
   -1.2211   -2.0008    0.0000 C   0  0  0  0  0  0  0  0  0  0  0  0
   -0.6234   -1.2531    0.0000 C   0  0  0  0  0  0  0  0  0  0  0  0
    0.5471   -2.0727    0.0000 C   0  0  0  0  0  0  0  0  0  0  0  0
   -2.5162   -1.3969    0.0000 C   0  0  0  0  0  0  0  0  0  0  0  0
   -0.1502   -0.5773    0.0000 C   0  0  0  0  0  0  0  0  0  0  0  0
    1.0203   -1.3969    0.0000 C   0  0  0  0  0  0  0  0  0  0  0  0
   -3.3381   -1.4688    0.0000 C   0  0  0  0  0  0  0  0  0  0  0  0
    0.6717   -0.6492    0.0000 C   0  0  0  0  0  0  0  0  0  0  0  0
   -3.8113   -0.7930    0.0000 C   0  0  0  0  0  0  0  0  0  0  0  0
   -2.6407    0.0266    0.0000 C   0  0  0  0  0  0  0  0  0  0  0  0
   -3.4626   -0.0453    0.0000 C   0  0  0  0  0  0  0  0  0  0  0  0
  1  8  1  0
  2  8  1  0
  3 19  1  0
  4 11  2  0
  5 11  1  0
  5 14  1  0
  6 14  1  0
  6 20  2  0
  7  8  1  0
  7  9  1  0
  7 10  1  0
  7 11  1  0
  8  9  1  0
 10 12  2  0
 10 13  1  0
 12 15  1  0
 13 16  2  0
 14 17  2  0
 15 18  2  0
 16 18  1  0
 17 19  1  0
 19 21  2  0
 20 21  1  0
M  END

> <chembl_id>
CHEMBL1340691

> <chembl_pref_name>
None

$$$$

     RDKit          2D

 41 45  0  0  0  0  0  0  0  0999 V2000
   15.4917   -5.1708    0.0000 C   0  0  0  0  0  0  0  0  0  0  0  0
   15.4917   -5.9958    0.0000 C   0  0  0  0  0  0  0  0  0  0  0  0
   16.2037   -6.4042    0.0000 C   0  0  0  0  0  0  0  0  0  0  0  0
   16.9157   -5.9958    0.0000 C   0  0  0  0  0  0  0  0  0  0  0  0
   14.7760   -4.7604    0.0000 O   0  0  0  0  0  0  0  0  0  0  0  0
   16.2037   -4.7542    0.0000 N   0  0  0  0  0  0  0  0  0  0  0  0
   16.9166   -5.1714    0.0000 C   0  0  0  0  0  0  0  0  0  0  0  0
   17.5337   -4.6223    0.0000 C   0  0  0  0  0  0  0  0  0  0  0  0
   17.2022   -3.8657    0.0000 C   0  0  0  0  0  0  0  0  0  0  0  0
   16.3803   -3.9473    0.0000 C   0  0  0  0  0  0  0  0  0  0  0  0
   17.6189   -3.1537    0.0000 O   0  0  0  0  0  0  0  0  0  0  0  0
   17.6125   -2.3250    0.0000 C   0  0  0  0  0  0  0  0  0  0  0  0
   18.3238   -1.9070    0.0000 C   0  0  0  0  0  0  0  0  0  0  0  0
   16.8949   -1.9180    0.0000 C   0  0  0  0  0  0  0  0  0  0  0  0
   19.0391   -2.3145    0.0000 C   0  0  0  0  0  0  0  0  0  0  0  0
   19.7499   -1.8972    0.0000 C   0  0  0  0  0  0  0  0  0  0  0  0
   19.7440   -1.0713    0.0000 C   0  0  0  0  0  0  0  0  0  0  0  0
   19.0213   -0.6645    0.0000 C   0  0  0  0  0  0  0  0  0  0  0  0
   18.3135   -1.0842    0.0000 C   0  0  0  0  0  0  0  0  0  0  0  0
   19.0121    0.1604    0.0000 C   0  0  0  0  0  0  0  0  0  0  0  0
   19.7219    0.5809    0.0000 F   0  0  0  0  0  0  0  0  0  0  0  0
   18.2930    0.5649    0.0000 F   0  0  0  0  0  0  0  0  0  0  0  0
   19.0042    0.9875    0.0000 F   0  0  0  0  0  0  0  0  0  0  0  0
   20.4673   -2.3045    0.0000 C   0  0  0  0  0  0  0  0  0  0  0  0
   20.4733   -3.1295    0.0000 F   0  0  0  0  0  0  0  0  0  0  0  0
   21.1788   -1.8869    0.0000 F   0  0  0  0  0  0  0  0  0  0  0  0
   21.1792   -2.7167    0.0000 F   0  0  0  0  0  0  0  0  0  0  0  0
   18.3354   -4.7970    0.0000 C   0  0  0  0  0  0  0  0  0  0  0  0
   18.5847   -5.5846    0.0000 C   0  0  0  0  0  0  0  0  0  0  0  0
   19.3898   -5.7611    0.0000 C   0  0  0  0  0  0  0  0  0  0  0  0
   19.9464   -5.1510    0.0000 C   0  0  0  0  0  0  0  0  0  0  0  0
   19.6923   -4.3616    0.0000 C   0  0  0  0  0  0  0  0  0  0  0  0
   18.8878   -4.1888    0.0000 C   0  0  0  0  0  0  0  0  0  0  0  0
   20.7526   -5.3262    0.0000 F   0  0  0  0  0  0  0  0  0  0  0  0
   16.2032   -7.2283    0.0000 C   0  0  0  0  0  0  0  0  0  0  0  0
   15.4871   -7.6402    0.0000 C   0  0  0  0  0  0  0  0  0  0  0  0
   15.4868   -8.4644    0.0000 C   0  0  0  0  0  0  0  0  0  0  0  0
   16.2018   -8.8778    0.0000 N   0  0  0  0  0  0  0  0  0  0  0  0
   16.9186   -8.4608    0.0000 C   0  0  0  0  0  0  0  0  0  0  0  0
   16.9155   -7.6380    0.0000 C   0  0  0  0  0  0  0  0  0  0  0  0
   14.7721   -8.8766    0.0000 F   0  0  0  0  0  0  0  0  0  0  0  0
  8  9  1  0
 18 20  1  0
  9 10  1  0
 20 21  1  0
 10  6  1  0
 20 22  1  0
 20 23  1  0
  9 11  1  6
 16 24  1  0
  1  5  2  0
 24 25  1  0
 11 12  1  0
 24 26  1  0
  6  7  1  0
 24 27  1  0
 12 13  1  0
  1  2  1  0
 28 29  2  0
 12 14  1  6
 29 30  1  0
  1  6  1  0
 30 31  2  0
 13 15  2  0
 31 32  1  0
  2  3  2  0
 32 33  2  0
 33 28  1  0
  8 28  1  1
 15 16  1  0
 31 34  1  0
  3  4  1  0
 16 17  2  0
 35 36  2  0
  4  7  1  0
 36 37  1  0
 17 18  1  0
 37 38  2  0
  7  8  1  0
 38 39  1  0
 18 19  2  0
 39 40  2  0
 40 35  1  0
  3 35  1  0
 19 13  1  0
 37 41  1  0
M  END

> <chembl_id>
CHEMBL1090649

> <chembl_pref_name>
None

$$$$

     RDKit          2D

 27 29  0  0  0  0  0  0  0  0999 V2000
    9.2000  -26.1583    0.0000 C   0  0  0  0  0  0  0  0  0  0  0  0
    9.2000  -26.9833    0.0000 C   0  0  0  0  0  0  0  0  0  0  0  0
    9.9120  -27.3917    0.0000 C   0  0  0  0  0  0  0  0  0  0  0  0
   10.6240  -26.9833    0.0000 C   0  0  0  0  0  0  0  0  0  0  0  0
    9.9120  -25.7417    0.0000 C   0  0  0  0  0  0  0  0  0  0  0  0
   10.6249  -26.1589    0.0000 C   0  0  0  0  0  0  0  0  0  0  0  0
   11.2420  -25.6098    0.0000 C   0  0  0  0  0  0  0  0  0  0  0  0
   10.9105  -24.8532    0.0000 O   0  0  0  0  0  0  0  0  0  0  0  0
   10.0883  -24.9350    0.0000 C   0  0  0  0  0  0  0  0  0  0  0  0
   12.0667  -25.6083    0.0000 C   0  0  0  0  0  0  0  0  0  0  0  0
    8.4843  -25.7479    0.0000 C   0  0  0  0  0  0  0  0  0  0  0  0
   11.3377  -27.3972    0.0000 C   0  0  0  0  0  0  0  0  0  0  0  0
   11.3361  -28.2222    0.0000 C   0  0  0  0  0  0  0  0  0  0  0  0
   12.0530  -26.9862    0.0000 C   0  0  0  0  0  0  0  0  0  0  0  0
   12.4784  -26.3241    0.0000 C   0  0  0  0  0  0  0  0  0  0  0  0
   13.3023  -26.3229    0.0000 C   0  0  0  0  0  0  0  0  0  0  0  0
   13.7141  -25.6075    0.0000 C   0  0  0  0  0  0  0  0  0  0  0  0
   13.2961  -24.8917    0.0000 C   0  0  0  0  0  0  0  0  0  0  0  0
   12.4736  -24.8964    0.0000 C   0  0  0  0  0  0  0  0  0  0  0  0
   11.3333  -26.5708    0.0000 H   0  0  0  0  0  0  0  0  0  0  0  0
    9.5384  -24.3174    0.0000 C   0  0  0  0  0  0  0  0  0  0  0  0
    9.7977  -23.5342    0.0000 O   0  0  0  0  0  0  0  0  0  0  0  0
    8.7305  -24.4843    0.0000 O   0  0  0  0  0  0  0  0  0  0  0  0
    9.2492  -22.9180    0.0000 C   0  0  0  0  0  0  0  0  0  0  0  0
    9.5085  -22.1348    0.0000 C   0  0  0  0  0  0  0  0  0  0  0  0
   12.0575  -24.1840    0.0000 Br  0  0  0  0  0  0  0  0  0  0  0  0
    9.1917  -25.3292    0.0000 H   0  0  0  0  0  0  0  0  0  0  0  0
 12 13  2  0
  1  5  1  0
 12 14  1  0
  2  3  1  0
 10 15  2  0
  3  4  1  0
 15 16  1  0
  6  7  1  0
 16 17  2  0
  7  8  1  0
 17 18  1  0
  8  9  1  0
 18 19  2  0
 19 10  1  0
  9  5  1  0
  6 20  1  1
  4  6  1  0
  7 10  1  1
  5  6  1  0
 21 22  1  0
 21 23  2  0
  9 21  1  1
  1 11  1  0
 22 24  1  0
 24 25  1  0
  4 12  1  1
 19 26  1  0
  1  2  2  0
  5 27  1  1
M  END

> <chembl_id>
CHEMBL1075694

> <chembl_pref_name>
None

$$$$

     RDKit          2D

 30 32  0  0  0  0  0  0  0  0999 V2000
    9.3917   -5.1792    0.0000 I   0  0  0  0  0  0  0  0  0  0  0  0
    7.7750   -4.9625    0.0000 N   0  0  0  0  0  0  0  0  0  0  0  0
    4.9042   -5.5917    0.0000 C   0  0  0  0  0  0  0  0  0  0  0  0
    6.8917   -5.3625    0.0000 N   0  0  0  0  0  0  0  0  0  0  0  0
    7.4792   -5.4792    0.0000 C   0  0  0  0  0  0  0  0  0  0  0  0
    5.0875   -5.0167    0.0000 C   0  0  0  0  0  0  0  0  0  0  0  0
    5.3917   -5.9417    0.0000 O   0  0  0  0  0  0  0  0  0  0  0  0
    7.3667   -4.5167    0.0000 C   0  0  0  0  0  0  0  0  0  0  0  0
    6.8250   -4.7625    0.0000 C   0  0  0  0  0  0  0  0  0  0  0  0
    5.8750   -5.5792    0.0000 C   0  0  0  0  0  0  0  0  0  0  0  0
    6.4417   -5.7667    0.0000 C   0  0  0  0  0  0  0  0  0  0  0  0
    5.6875   -5.0125    0.0000 C   0  0  0  0  0  0  0  0  0  0  0  0
    4.3542   -6.0542    0.0000 O   0  0  0  0  0  0  0  0  0  0  0  0
    5.0792   -4.4167    0.0000 C   0  0  0  0  0  0  0  0  0  0  0  0
    4.4875   -5.0167    0.0000 C   0  0  0  0  0  0  0  0  0  0  0  0
    8.3667   -4.8917    0.0000 C   0  0  0  0  0  0  0  0  0  0  0  0
    7.7250   -6.0292    0.0000 C   0  0  0  0  0  0  0  0  0  0  0  0
    7.3750   -6.5167    0.0000 O   0  0  0  0  0  0  0  0  0  0  0  0
    5.6042   -4.1042    0.0000 C   0  0  0  0  0  0  0  0  0  0  0  0
    4.5542   -4.1167    0.0000 C   0  0  0  0  0  0  0  0  0  0  0  0
    4.1875   -4.4917    0.0000 C   0  0  0  0  0  0  0  0  0  0  0  0
    4.1875   -5.5292    0.0000 C   0  0  0  0  0  0  0  0  0  0  0  0
    7.6250   -7.0625    0.0000 C   0  0  0  0  0  0  0  0  0  0  0  0
    7.2750   -7.5500    0.0000 C   0  0  0  0  0  0  0  0  0  0  0  0
    3.5875   -5.5292    0.0000 C   0  0  0  0  0  0  0  0  0  0  0  0
    5.5917   -3.5042    0.0000 C   0  0  0  0  0  0  0  0  0  0  0  0
    4.5500   -3.5167    0.0000 C   0  0  0  0  0  0  0  0  0  0  0  0
    3.5875   -4.4875    0.0000 C   0  0  0  0  0  0  0  0  0  0  0  0
    5.0667   -3.2125    0.0000 C   0  0  0  0  0  0  0  0  0  0  0  0
    3.2792   -5.0042    0.0000 C   0  0  0  0  0  0  0  0  0  0  0  0
  3  7  1  0
  4  5  1  0
  5  2  2  0
  6 12  1  0
  7 10  1  0
  8  2  1  0
  9  8  2  0
 10 11  1  0
 11  4  1  0
 12 10  1  0
 13  3  2  0
 14  6  1  0
 15  6  1  0
 16  2  1  0
 17  5  1  0
 18 17  1  0
 19 14  2  0
 20 14  1  0
 21 15  2  0
 22 15  1  0
 23 18  1  0
 24 23  1  0
 25 22  2  0
 26 19  1  0
 27 20  2  0
 28 21  1  0
 29 27  1  0
 30 28  2  0
  9  4  1  0
  6  3  1  0
 25 30  1  0
 29 26  2  0
M  CHG  2   1  -1   2   1
M  END

> <chembl_id>
CHEMBL138707

> <chembl_pref_name>
None

$$$$

     RDKit          2D

 30 33  0  0  0  0  0  0  0  0999 V2000
    2.2373    1.3888    0.0000 F   0  0  0  0  0  0  0  0  0  0  0  0
    4.5915   -3.0537    0.0000 O   0  0  0  0  0  0  0  0  0  0  0  0
    3.3400   -0.3763    0.0000 O   0  0  0  0  0  0  0  0  0  0  0  0
    1.5229   -3.1487    0.0000 O   0  0  0  0  0  0  0  0  0  0  0  0
    0.0939   -2.3237    0.0000 O   0  0  0  0  0  0  0  0  0  0  0  0
    3.6663   -1.9112    0.0000 N   0  0  0  0  0  0  0  0  0  0  0  0
    2.2373   -1.9112    0.0000 N   0  0  0  0  0  0  0  0  0  0  0  0
    4.9720   -1.6337    0.0000 C   0  0  0  0  0  0  0  0  0  0  0  0
    4.5595   -0.9192    0.0000 C   0  0  0  0  0  0  0  0  0  0  0  0
    4.4200   -2.2468    0.0000 C   0  0  0  0  0  0  0  0  0  0  0  0
    3.7525   -1.0907    0.0000 C   0  0  0  0  0  0  0  0  0  0  0  0
    2.9518   -2.3237    0.0000 C   0  0  0  0  0  0  0  0  0  0  0  0
    5.7970   -1.6337    0.0000 C   0  0  0  0  0  0  0  0  0  0  0  0
    4.9720   -0.2047    0.0000 C   0  0  0  0  0  0  0  0  0  0  0  0
    2.2373   -1.0862    0.0000 C   0  0  0  0  0  0  0  0  0  0  0  0
    1.5229   -2.3237    0.0000 C   0  0  0  0  0  0  0  0  0  0  0  0
    6.2095   -0.9192    0.0000 C   0  0  0  0  0  0  0  0  0  0  0  0
    5.7970   -0.2047    0.0000 C   0  0  0  0  0  0  0  0  0  0  0  0
    1.5229   -0.6737    0.0000 C   0  0  0  0  0  0  0  0  0  0  0  0
    2.9518   -0.6737    0.0000 C   0  0  0  0  0  0  0  0  0  0  0  0
    0.8084   -1.9112    0.0000 C   0  0  0  0  0  0  0  0  0  0  0  0
    1.5229    0.1513    0.0000 C   0  0  0  0  0  0  0  0  0  0  0  0
    2.9518    0.1513    0.0000 C   0  0  0  0  0  0  0  0  0  0  0  0
    2.2373    0.5638    0.0000 C   0  0  0  0  0  0  0  0  0  0  0  0
   -0.6205   -1.9112    0.0000 C   0  0  0  0  0  0  0  0  0  0  0  0
   -1.3350   -2.3237    0.0000 C   0  0  0  0  0  0  0  0  0  0  0  0
   -0.6205   -1.0862    0.0000 C   0  0  0  0  0  0  0  0  0  0  0  0
   -2.0495   -1.9112    0.0000 C   0  0  0  0  0  0  0  0  0  0  0  0
   -1.3350   -0.6737    0.0000 C   0  0  0  0  0  0  0  0  0  0  0  0
   -2.0495   -1.0862    0.0000 C   0  0  0  0  0  0  0  0  0  0  0  0
  1 24  1  0
  2 10  2  0
  3 11  2  0
  4 16  2  0
  5 21  1  0
  5 25  1  0
  6 10  1  0
  6 11  1  0
  6 12  1  0
  7 12  1  0
  7 15  1  0
  7 16  1  0
  8  9  1  0
  8 10  1  0
  8 13  2  0
  9 11  1  0
  9 14  2  0
 13 17  1  0
 14 18  1  0
 15 19  2  0
 15 20  1  0
 16 21  1  0
 17 18  2  0
 19 22  1  0
 20 23  2  0
 22 24  2  0
 23 24  1  0
 25 26  2  0
 25 27  1  0
 26 28  1  0
 27 29  2  0
 28 30  2  0
 29 30  1  0
M  END

> <chembl_id>
CHEMBL1340494

> <chembl_pref_name>
None

$$$$

     RDKit          2D

 26 29  0  0  0  0  0  0  0  0999 V2000
   -2.1576    0.8214    0.0000 S   0  0  0  0  0  0  0  0  0  0  0  0
   -4.1778    2.3364    0.0000 S   0  0  0  0  0  0  0  0  0  0  0  0
   -0.7286   -1.6536    0.0000 O   0  0  0  0  0  0  0  0  0  0  0  0
   -1.4431   -0.4161    0.0000 N   0  0  0  0  0  0  0  0  0  0  0  0
   -0.7286    0.8214    0.0000 N   0  0  0  0  0  0  0  0  0  0  0  0
   -2.9583    2.8794    0.0000 N   0  0  0  0  0  0  0  0  0  0  0  0
   -0.0142   -0.4161    0.0000 C   0  0  0  0  0  0  0  0  0  0  0  0
   -0.7286   -0.8286    0.0000 C   0  0  0  0  0  0  0  0  0  0  0  0
   -0.0142    0.4089    0.0000 C   0  0  0  0  0  0  0  0  0  0  0  0
   -1.4431    0.4089    0.0000 C   0  0  0  0  0  0  0  0  0  0  0  0
   -3.7653    3.0509    0.0000 C   0  0  0  0  0  0  0  0  0  0  0  0
   -2.8720    2.0589    0.0000 C   0  0  0  0  0  0  0  0  0  0  0  0
    0.7003   -0.8286    0.0000 C   0  0  0  0  0  0  0  0  0  0  0  0
    0.7003    0.8214    0.0000 C   0  0  0  0  0  0  0  0  0  0  0  0
   -4.1008    3.8046    0.0000 C   0  0  0  0  0  0  0  0  0  0  0  0
   -2.1576    1.6464    0.0000 C   0  0  0  0  0  0  0  0  0  0  0  0
   -3.6257    1.7233    0.0000 C   0  0  0  0  0  0  0  0  0  0  0  0
    1.4148   -0.4161    0.0000 C   0  0  0  0  0  0  0  0  0  0  0  0
   -2.1576   -0.8286    0.0000 C   0  0  0  0  0  0  0  0  0  0  0  0
    1.4148    0.4089    0.0000 C   0  0  0  0  0  0  0  0  0  0  0  0
   -4.9213    3.8908    0.0000 C   0  0  0  0  0  0  0  0  0  0  0  0
   -3.6159    4.4720    0.0000 C   0  0  0  0  0  0  0  0  0  0  0  0
   -4.7719    5.3119    0.0000 C   0  0  0  0  0  0  0  0  0  0  0  0
   -5.2568    4.6445    0.0000 C   0  0  0  0  0  0  0  0  0  0  0  0
   -3.9514    5.2257    0.0000 C   0  0  0  0  0  0  0  0  0  0  0  0
   -5.1075    6.0656    0.0000 C   0  0  0  0  0  0  0  0  0  0  0  0
  1 10  1  0
  1 16  1  0
  2 11  1  0
  2 17  1  0
  3  8  2  0
  4  8  1  0
  4 10  1  0
  4 19  1  0
  5  9  1  0
  5 10  2  0
  6 11  2  0
  6 12  1  0
  7  8  1  0
  7  9  1  0
  7 13  2  0
  9 14  2  0
 11 15  1  0
 12 16  1  0
 12 17  2  0
 13 18  1  0
 14 20  1  0
 15 21  2  0
 15 22  1  0
 18 20  2  0
 21 24  1  0
 22 25  2  0
 23 24  2  0
 23 25  1  0
 23 26  1  0
M  END

> <chembl_id>
CHEMBL1320694

> <chembl_pref_name>
None

$$$$

     RDKit          2D

 35 38  0  0  0  0  0  0  0  0999 V2000
   -3.4060   -0.7647    0.0000 S   0  0  0  0  0  0  0  0  0  0  0  0
   -1.9771    1.7103    0.0000 O   0  0  0  0  0  0  0  0  0  0  0  0
   -5.5495   -1.1772    0.0000 O   0  0  0  0  0  0  0  0  0  0  0  0
   -6.3502   -0.7602    0.0000 O   0  0  0  0  0  0  0  0  0  0  0  0
    0.1663    1.2978    0.0000 O   0  0  0  0  0  0  0  0  0  0  0  0
   -2.6916    0.4728    0.0000 N   0  0  0  0  0  0  0  0  0  0  0  0
   -4.1205    0.4728    0.0000 N   0  0  0  0  0  0  0  0  0  0  0  0
   -4.8350    0.0603    0.0000 N   0  0  0  0  0  0  0  0  0  0  0  0
    0.8808    0.0603    0.0000 N   0  0  0  0  0  0  0  0  0  0  0  0
   -3.4060    1.7103    0.0000 C   0  0  0  0  0  0  0  0  0  0  0  0
   -2.6916    1.2978    0.0000 C   0  0  0  0  0  0  0  0  0  0  0  0
   -4.1205    1.2978    0.0000 C   0  0  0  0  0  0  0  0  0  0  0  0
   -3.4060    0.0603    0.0000 C   0  0  0  0  0  0  0  0  0  0  0  0
   -3.4060    2.5353    0.0000 C   0  0  0  0  0  0  0  0  0  0  0  0
   -4.8350    1.7103    0.0000 C   0  0  0  0  0  0  0  0  0  0  0  0
   -1.9771    0.0603    0.0000 C   0  0  0  0  0  0  0  0  0  0  0  0
   -4.1205    2.9478    0.0000 C   0  0  0  0  0  0  0  0  0  0  0  0
   -4.8350    2.5353    0.0000 C   0  0  0  0  0  0  0  0  0  0  0  0
   -4.1205   -1.1772    0.0000 C   0  0  0  0  0  0  0  0  0  0  0  0
   -1.2626    0.4728    0.0000 C   0  0  0  0  0  0  0  0  0  0  0  0
   -4.8350   -0.7647    0.0000 C   0  0  0  0  0  0  0  0  0  0  0  0
   -0.5482    0.0603    0.0000 C   0  0  0  0  0  0  0  0  0  0  0  0
    0.1663    0.4728    0.0000 C   0  0  0  0  0  0  0  0  0  0  0  0
   -6.2639    0.0603    0.0000 C   0  0  0  0  0  0  0  0  0  0  0  0
   -5.5495    0.4728    0.0000 C   0  0  0  0  0  0  0  0  0  0  0  0
   -7.0176    0.3958    0.0000 C   0  0  0  0  0  0  0  0  0  0  0  0
    2.3097    0.0603    0.0000 C   0  0  0  0  0  0  0  0  0  0  0  0
    1.5952    0.4728    0.0000 C   0  0  0  0  0  0  0  0  0  0  0  0
   -7.1571   -0.9318    0.0000 C   0  0  0  0  0  0  0  0  0  0  0  0
   -7.5696   -0.2173    0.0000 C   0  0  0  0  0  0  0  0  0  0  0  0
    3.0242    0.4728    0.0000 C   0  0  0  0  0  0  0  0  0  0  0  0
    2.3097   -0.7647    0.0000 C   0  0  0  0  0  0  0  0  0  0  0  0
    3.7387    0.0603    0.0000 C   0  0  0  0  0  0  0  0  0  0  0  0
    3.0242   -1.1772    0.0000 C   0  0  0  0  0  0  0  0  0  0  0  0
    3.7387   -0.7647    0.0000 C   0  0  0  0  0  0  0  0  0  0  0  0
  1 13  1  0
  1 19  1  0
  2 11  2  0
  3 21  2  0
  4 24  1  0
  4 29  1  0
  5 23  2  0
  6 11  1  0
  6 13  1  0
  6 16  1  0
  7 12  1  0
  7 13  2  0
  8 21  1  0
  8 25  1  0
  9 23  1  0
  9 28  1  0
 10 11  1  0
 10 12  1  0
 10 14  2  0
 12 15  2  0
 14 17  1  0
 15 18  1  0
 16 20  1  0
 17 18  2  0
 19 21  1  0
 20 22  1  0
 22 23  1  0
 24 25  1  0
 24 26  1  0
 26 30  1  0
 27 28  1  0
 27 31  2  0
 27 32  1  0
 29 30  1  0
 31 33  1  0
 32 34  2  0
 33 35  2  0
 34 35  1  0
M  END

> <chembl_id>
CHEMBL1400964

> <chembl_pref_name>
None

$$$$

     RDKit          2D

125129  0  0  0  0  0  0  0  0999 V2000
   11.0185   -7.2601    0.0000 C   0  0  0  0  0  0  0  0  0  0  0  0
   10.3060   -6.8601    0.0000 C   0  0  0  0  0  0  0  0  0  0  0  0
   11.0276   -8.0785    0.0000 O   0  0  0  0  0  0  0  0  0  0  0  0
   11.7220   -6.8419    0.0000 O   0  0  0  0  0  0  0  0  0  0  0  0
   10.2962   -6.0429    0.0000 F   0  0  0  0  0  0  0  0  0  0  0  0
    9.6032   -7.2771    0.0000 F   0  0  0  0  0  0  0  0  0  0  0  0
    9.5955   -6.4497    0.0000 F   0  0  0  0  0  0  0  0  0  0  0  0
    7.7930   -5.0747    0.0000 C   0  0  0  0  0  0  0  0  0  0  0  0
    7.0814   -5.4872    0.0000 C   0  0  0  0  0  0  0  0  0  0  0  0
    7.7930   -4.2497    0.0000 N   0  0  0  0  0  0  0  0  0  0  0  0
    6.3655   -5.0747    0.0000 N   0  0  0  0  0  0  0  0  0  0  0  0
    8.5088   -3.8372    0.0000 C   0  0  0  0  0  0  0  0  0  0  0  0
    8.5088   -3.0122    0.0000 C   0  0  0  0  0  0  0  0  0  0  0  0
    9.2247   -2.5997    0.0000 N   0  0  0  0  0  0  0  0  0  0  0  0
    9.9364   -3.0122    0.0000 C   0  0  0  0  0  0  0  0  0  0  0  0
   10.6523   -2.5997    0.0000 C   0  0  0  0  0  0  0  0  0  0  0  0
   11.3682   -3.0122    0.0000 C   0  0  0  0  0  0  0  0  0  0  0  0
    9.9364   -3.8372    0.0000 O   0  0  0  0  0  0  0  0  0  0  0  0
   11.3682   -3.8372    0.0000 C   0  0  0  0  0  0  0  0  0  0  0  0
   10.6523   -4.2497    0.0000 O   0  0  0  0  0  0  0  0  0  0  0  0
   12.0798   -4.2497    0.0000 N   0  0  0  0  0  0  0  0  0  0  0  0
   12.7957   -3.8372    0.0000 C   0  0  0  0  0  0  0  0  0  0  0  0
   13.5115   -4.2497    0.0000 C   0  0  0  0  0  0  0  0  0  0  0  0
   13.5115   -5.0747    0.0000 O   0  0  0  0  0  0  0  0  0  0  0  0
   14.2233   -3.8372    0.0000 N   0  0  0  0  0  0  0  0  0  0  0  0
   14.9390   -4.2497    0.0000 C   0  0  0  0  0  0  0  0  0  0  0  0
   15.6549   -3.8372    0.0000 C   0  0  0  0  0  0  0  0  0  0  0  0
   16.3666   -4.2497    0.0000 C   0  0  0  0  0  0  0  0  0  0  0  0
   17.0825   -3.8372    0.0000 C   0  0  0  0  0  0  0  0  0  0  0  0
   17.7984   -4.2497    0.0000 N   0  0  0  0  0  0  0  0  0  0  0  0
   17.7984   -5.0747    0.0000 C   0  0  0  0  0  0  0  0  0  0  0  0
   17.0825   -5.4872    0.0000 O   0  0  0  0  0  0  0  0  0  0  0  0
   18.5100   -5.4872    0.0000 N   0  0  0  0  0  0  0  0  0  0  0  0
   19.2259   -5.0747    0.0000 C   0  0  0  0  0  0  0  0  0  0  0  0
   19.9417   -5.4872    0.0000 C   0  0  0  0  0  0  0  0  0  0  0  0
   19.9417   -6.3122    0.0000 C   0  0  0  0  0  0  0  0  0  0  0  0
   20.6535   -6.7288    0.0000 C   0  0  0  0  0  0  0  0  0  0  0  0
   21.3693   -6.3122    0.0000 C   0  0  0  0  0  0  0  0  0  0  0  0
   21.3693   -5.4872    0.0000 C   0  0  0  0  0  0  0  0  0  0  0  0
   20.6535   -5.0747    0.0000 C   0  0  0  0  0  0  0  0  0  0  0  0
   22.0852   -6.7288    0.0000 C   0  0  0  0  0  0  0  0  0  0  0  0
   22.7968   -6.3122    0.0000 N   0  0  0  0  0  0  0  0  0  0  0  0
   23.5127   -6.7288    0.0000 C   0  0  0  0  0  0  0  0  0  0  0  0
   23.5127   -7.5538    0.0000 O   0  0  0  0  0  0  0  0  0  0  0  0
   24.2286   -6.3122    0.0000 C   0  0  0  0  0  0  0  0  0  0  0  0
   24.9403   -6.7288    0.0000 C   0  0  0  0  0  0  0  0  0  0  0  0
   24.9403   -7.5538    0.0000 C   0  0  0  0  0  0  0  0  0  0  0  0
   24.2286   -7.9663    0.0000 C   0  0  0  0  0  0  0  0  0  0  0  0
   24.2286   -8.7913    0.0000 N   0  0  0  0  0  0  0  0  0  0  0  0
   23.5127   -9.2038    0.0000 C   0  0  0  0  0  0  0  0  0  0  0  0
   23.5127  -10.0287    0.0000 N   0  0  0  0  0  0  0  0  0  0  0  0
   22.7968   -8.7913    0.0000 N   0  0  0  0  0  0  0  0  0  0  0  0
   24.2286   -5.4872    0.0000 N   0  0  0  0  0  0  0  0  0  0  0  0
   24.9403   -5.0747    0.0000 C   0  0  0  0  0  0  0  0  0  0  0  0
   25.6562   -5.4872    0.0000 O   0  0  0  0  0  0  0  0  0  0  0  0
   24.9403   -4.2497    0.0000 C   0  0  0  0  0  0  0  0  0  0  0  0
   25.6562   -3.8372    0.0000 C   0  0  0  0  0  0  0  0  0  0  0  0
   26.3719   -4.2497    0.0000 C   0  0  0  0  0  0  0  0  0  0  0  0
   27.0837   -3.8372    0.0000 C   0  0  0  0  0  0  0  0  0  0  0  0
   27.0837   -3.0122    0.0000 C   0  0  0  0  0  0  0  0  0  0  0  0
   26.3719   -2.5997    0.0000 C   0  0  0  0  0  0  0  0  0  0  0  0
   25.6562   -3.0122    0.0000 C   0  0  0  0  0  0  0  0  0  0  0  0
   24.2286   -3.8372    0.0000 C   0  0  0  0  0  0  0  0  0  0  0  0
   24.2286   -3.0122    0.0000 C   0  0  0  0  0  0  0  0  0  0  0  0
   23.5127   -2.5997    0.0000 C   0  0  0  0  0  0  0  0  0  0  0  0
   22.7968   -3.0122    0.0000 C   0  0  0  0  0  0  0  0  0  0  0  0
   22.7968   -3.8372    0.0000 C   0  0  0  0  0  0  0  0  0  0  0  0
   23.5127   -4.2497    0.0000 C   0  0  0  0  0  0  0  0  0  0  0  0
    7.0814   -3.8372    0.0000 C   0  0  0  0  0  0  0  0  0  0  0  0
    6.3655   -4.2497    0.0000 C   0  0  0  0  0  0  0  0  0  0  0  0
    5.6538   -3.8372    0.0000 N   0  0  0  0  0  0  0  0  0  0  0  0
    4.9379   -4.2497    0.0000 C   0  0  0  0  0  0  0  0  0  0  0  0
    4.2220   -3.8372    0.0000 C   0  0  0  0  0  0  0  0  0  0  0  0
    3.5062   -4.2497    0.0000 C   0  0  0  0  0  0  0  0  0  0  0  0
    4.9379   -5.0747    0.0000 O   0  0  0  0  0  0  0  0  0  0  0  0
    2.7945   -3.8372    0.0000 C   0  0  0  0  0  0  0  0  0  0  0  0
    2.0787   -4.2497    0.0000 O   0  0  0  0  0  0  0  0  0  0  0  0
    2.7945   -3.0122    0.0000 N   0  0  0  0  0  0  0  0  0  0  0  0
    2.0787   -2.5997    0.0000 C   0  0  0  0  0  0  0  0  0  0  0  0
    1.3628   -3.0122    0.0000 C   0  0  0  0  0  0  0  0  0  0  0  0
    1.3628   -3.8372    0.0000 O   0  0  0  0  0  0  0  0  0  0  0  0
    0.6512   -2.5997    0.0000 N   0  0  0  0  0  0  0  0  0  0  0  0
   -0.0685   -3.0122    0.0000 C   0  0  0  0  0  0  0  0  0  0  0  0
   -0.0685   -3.8372    0.0000 C   0  0  0  0  0  0  0  0  0  0  0  0
   -0.7860   -4.2497    0.0000 C   0  0  0  0  0  0  0  0  0  0  0  0
   -0.7860   -5.0747    0.0000 C   0  0  0  0  0  0  0  0  0  0  0  0
   -1.4994   -5.4872    0.0000 N   0  0  0  0  0  0  0  0  0  0  0  0
   -2.2085   -5.0747    0.0000 C   0  0  0  0  0  0  0  0  0  0  0  0
   -2.9260   -5.4872    0.0000 O   0  0  0  0  0  0  0  0  0  0  0  0
   -2.2085   -4.2497    0.0000 N   0  0  0  0  0  0  0  0  0  0  0  0
   -2.9260   -3.8372    0.0000 C   0  0  0  0  0  0  0  0  0  0  0  0
   -3.6392   -4.2497    0.0000 C   0  0  0  0  0  0  0  0  0  0  0  0
   -4.3567   -3.8372    0.0000 C   0  0  0  0  0  0  0  0  0  0  0  0
   -5.0742   -4.2497    0.0000 C   0  0  0  0  0  0  0  0  0  0  0  0
   -5.0742   -5.0747    0.0000 C   0  0  0  0  0  0  0  0  0  0  0  0
   -4.3567   -5.4872    0.0000 C   0  0  0  0  0  0  0  0  0  0  0  0
   -3.6392   -5.0747    0.0000 C   0  0  0  0  0  0  0  0  0  0  0  0
   -5.7791   -5.4872    0.0000 C   0  0  0  0  0  0  0  0  0  0  0  0
   -6.4950   -5.0747    0.0000 N   0  0  0  0  0  0  0  0  0  0  0  0
   -7.2108   -5.4872    0.0000 C   0  0  0  0  0  0  0  0  0  0  0  0
   -7.2108   -6.3122    0.0000 O   0  0  0  0  0  0  0  0  0  0  0  0
   -7.9266   -5.0747    0.0000 C   0  0  0  0  0  0  0  0  0  0  0  0
   -8.6384   -5.4872    0.0000 C   0  0  0  0  0  0  0  0  0  0  0  0
   -9.3542   -5.0747    0.0000 C   0  0  0  0  0  0  0  0  0  0  0  0
  -10.0701   -5.4872    0.0000 C   0  0  0  0  0  0  0  0  0  0  0  0
  -10.0701   -6.3122    0.0000 N   0  0  0  0  0  0  0  0  0  0  0  0
  -10.7817   -6.7288    0.0000 C   0  0  0  0  0  0  0  0  0  0  0  0
  -10.7817   -7.5538    0.0000 N   0  0  0  0  0  0  0  0  0  0  0  0
  -11.4976   -6.3122    0.0000 N   0  0  0  0  0  0  0  0  0  0  0  0
   -7.9266   -4.2497    0.0000 N   0  0  0  0  0  0  0  0  0  0  0  0
   -8.6384   -3.8372    0.0000 C   0  0  0  0  0  0  0  0  0  0  0  0
   -9.3542   -4.2497    0.0000 O   0  0  0  0  0  0  0  0  0  0  0  0
   -8.6384   -3.0122    0.0000 C   0  0  0  0  0  0  0  0  0  0  0  0
   -7.9266   -2.5997    0.0000 C   0  0  0  0  0  0  0  0  0  0  0  0
   -7.2108   -3.0122    0.0000 C   0  0  0  0  0  0  0  0  0  0  0  0
   -6.4950   -2.5997    0.0000 C   0  0  0  0  0  0  0  0  0  0  0  0
   -6.4950   -1.7747    0.0000 C   0  0  0  0  0  0  0  0  0  0  0  0
   -7.2108   -1.3622    0.0000 C   0  0  0  0  0  0  0  0  0  0  0  0
   -7.9266   -1.7747    0.0000 C   0  0  0  0  0  0  0  0  0  0  0  0
   -9.3542   -2.5997    0.0000 C   0  0  0  0  0  0  0  0  0  0  0  0
   -9.3542   -1.7747    0.0000 C   0  0  0  0  0  0  0  0  0  0  0  0
  -10.0701   -1.3622    0.0000 C   0  0  0  0  0  0  0  0  0  0  0  0
  -10.7817   -1.7747    0.0000 C   0  0  0  0  0  0  0  0  0  0  0  0
  -10.7817   -2.5997    0.0000 C   0  0  0  0  0  0  0  0  0  0  0  0
  -10.0701   -3.0122    0.0000 C   0  0  0  0  0  0  0  0  0  0  0  0
  1  2  1  0
  1  3  2  0
  1  4  1  0
  2  5  1  0
  2  6  1  0
  2  7  1  0
  8  9  1  0
  8 10  1  0
  9 11  1  0
 12 13  1  0
 13 14  1  0
 15 16  1  0
 16 17  1  0
 15 18  2  0
 19 20  2  0
 23 24  2  0
 26 27  1  0
 27 28  1  0
 28 29  1  0
 31 32  2  0
 34 35  1  0
 35 36  1  0
 36 37  2  0
 37 38  1  0
 38 39  2  0
 39 40  1  0
 35 40  2  0
 43 44  2  0
 43 45  1  0
 46 47  1  0
 47 48  1  0
 49 50  1  0
 50 51  2  0
 50 52  1  0
 48 49  1  0
 45 46  1  0
 54 55  2  0
 54 56  1  0
 53 54  1  0
 57 58  1  0
 58 59  2  0
 59 60  1  0
 60 61  2  0
 61 62  1  0
 57 62  2  0
 56 57  1  0
 63 64  1  0
 64 65  2  0
 65 66  1  0
 66 67  2  0
 67 68  1  0
 63 68  2  0
 56 63  1  0
 45 53  1  6
 42 43  1  0
 41 42  1  0
 38 41  1  0
 33 34  1  0
 31 33  1  0
 30 31  1  0
 29 30  1  0
 25 26  1  0
 23 25  1  0
 22 23  1  0
 21 22  1  0
 19 21  1  0
 17 19  1  0
 14 15  1  0
 10 12  1  0
 69 70  1  0
 70 71  1  0
 72 73  1  0
 73 74  1  0
 72 75  2  0
 76 77  2  0
 80 81  2  0
 83 84  1  0
 84 85  1  0
 85 86  1  0
 88 89  2  0
 91 92  1  0
 92 93  1  0
 93 94  2  0
 94 95  1  0
 95 96  2  0
 96 97  1  0
 92 97  2  0
100101  2  0
100102  1  0
103104  1  0
104105  1  0
106107  1  0
107108  2  0
107109  1  0
105106  1  0
102103  1  0
111112  2  0
111113  1  0
110111  1  0
114115  1  0
115116  2  0
116117  1  0
117118  2  0
118119  1  0
114119  2  0
113114  1  0
120121  1  0
121122  2  0
122123  1  0
123124  2  0
124125  1  0
120125  2  0
113120  1  0
102110  1  1
 99100  1  0
 98 99  1  0
 95 98  1  0
 90 91  1  0
 88 90  1  0
 87 88  1  0
 86 87  1  0
 82 83  1  0
 80 82  1  0
 79 80  1  0
 78 79  1  0
 76 78  1  0
 74 76  1  0
 71 72  1  0
 10 69  1  0
M  END

> <chembl_id>
CHEMBL2440898

> <chembl_pref_name>
None

$$$$

     RDKit          2D

136141  0  0  0  0  0  0  0  0999 V2000
   -5.3831   -4.6876    0.0000 C   0  0  0  0  0  0  0  0  0  0  0  0
   -4.1449   -5.4135    0.0000 O   0  0  0  0  0  0  0  0  0  0  0  0
   -5.7770   -3.9703    0.0000 C   0  0  0  0  0  0  0  0  0  0  0  0
   -4.5508   -4.6973    0.0000 C   0  0  0  0  0  0  0  0  0  0  0  0
   -4.1307   -3.9867    0.0000 N   0  0  0  0  0  0  0  0  0  0  0  0
   -3.3085   -3.9934    0.0000 C   0  0  0  0  0  0  0  0  0  0  0  0
   -3.3216   -5.4242    0.0000 O   0  0  0  0  0  0  0  0  0  0  0  0
   -2.9014   -4.7136    0.0000 C   0  0  0  0  0  0  0  0  0  0  0  0
   -2.8872   -3.2869    0.0000 C   0  0  0  0  0  0  0  0  0  0  0  0
   -3.2903   -2.5657    0.0000 S   0  0  0  0  0  0  0  0  0  0  0  0
   -1.6734   -5.4478    0.0000 C   0  0  0  0  0  0  0  0  0  0  0  0
   -0.4301   -4.7479    0.0000 O   0  0  0  0  0  0  0  0  0  0  0  0
   -2.0936   -6.1583    0.0000 C   0  0  0  0  0  0  0  0  0  0  0  0
   -0.8461   -5.4574    0.0000 C   0  0  0  0  0  0  0  0  0  0  0  0
   -0.4829   -6.1961    0.0000 N   0  0  0  0  0  0  0  0  0  0  0  0
    0.3019   -6.4478    0.0000 C   0  0  0  0  0  0  0  0  0  0  0  0
    0.9697   -5.1377    0.0000 O   0  0  0  0  0  0  0  0  0  0  0  0
    0.9699   -5.9621    0.0000 C   0  0  0  0  0  0  0  0  0  0  0  0
    0.3046   -7.2743    0.0000 C   0  0  0  0  0  0  0  0  0  0  0  0
   -0.9684   -6.8633    0.0000 C   0  0  0  0  0  0  0  0  0  0  0  0
   -0.4826   -7.5313    0.0000 C   0  0  0  0  0  0  0  0  0  0  0  0
    2.3906   -5.9501    0.0000 C   0  0  0  0  0  0  0  0  0  0  0  0
    3.1047   -7.1884    0.0000 O   0  0  0  0  0  0  0  0  0  0  0  0
    3.1047   -6.3617    0.0000 C   0  0  0  0  0  0  0  0  0  0  0  0
    2.3998   -5.1235    0.0000 C   0  0  0  0  0  0  0  0  0  0  0  0
    3.7656   -5.1038    0.0000 C   0  0  0  0  0  0  0  0  0  0  0  0
    3.0758   -4.6530    0.0000 C   0  0  0  0  0  0  0  0  0  0  0  0
    3.2890   -3.8565    0.0000 C   0  0  0  0  0  0  0  0  0  0  0  0
    4.1154   -3.8196    0.0000 C   0  0  0  0  0  0  0  0  0  0  0  0
    4.4907   -3.0815    0.0000 C   0  0  0  0  0  0  0  0  0  0  0  0
    4.0467   -2.3897    0.0000 C   0  0  0  0  0  0  0  0  0  0  0  0
    3.2237   -2.4313    0.0000 C   0  0  0  0  0  0  0  0  0  0  0  0
    2.8448   -3.1647    0.0000 C   0  0  0  0  0  0  0  0  0  0  0  0
    5.9583   -9.6698    0.0000 C   0  0  0  0  0  0  0  0  0  0  0  0
    4.5383   -6.3753    0.0000 C   0  0  0  0  0  0  0  0  0  0  0  0
    5.2562   -5.1343    0.0000 O   0  0  0  0  0  0  0  0  0  0  0  0
    5.2562   -5.9616    0.0000 C   0  0  0  0  0  0  0  0  0  0  0  0
    4.5383   -7.1974    0.0000 C   0  0  0  0  0  0  0  0  0  0  0  0
    5.2521   -7.6111    0.0000 C   0  0  0  0  0  0  0  0  0  0  0  0
    5.2521   -8.4333    0.0000 C   0  0  0  0  0  0  0  0  0  0  0  0
    6.6819   -5.9567    0.0000 C   0  0  0  0  0  0  0  0  0  0  0  0
    7.3952   -7.1898    0.0000 O   0  0  0  0  0  0  0  0  0  0  0  0
    7.3952   -6.3678    0.0000 C   0  0  0  0  0  0  0  0  0  0  0  0
    6.6819   -5.1292    0.0000 C   0  0  0  0  0  0  0  0  0  0  0  0
    5.9639   -4.7155    0.0000 C   0  0  0  0  0  0  0  0  0  0  0  0
    8.8284   -6.3738    0.0000 C   0  0  0  0  0  0  0  0  0  0  0  0
    9.5464   -5.1368    0.0000 O   0  0  0  0  0  0  0  0  0  0  0  0
    8.8284   -7.1959    0.0000 C   0  0  0  0  0  0  0  0  0  0  0  0
    9.5464   -5.9601    0.0000 C   0  0  0  0  0  0  0  0  0  0  0  0
   10.9768   -5.9650    0.0000 C   0  0  0  0  0  0  0  0  0  0  0  0
   11.6901   -7.1981    0.0000 O   0  0  0  0  0  0  0  0  0  0  0  0
   11.6901   -6.3760    0.0000 C   0  0  0  0  0  0  0  0  0  0  0  0
   10.9768   -5.1376    0.0000 C   0  0  0  0  0  0  0  0  0  0  0  0
   11.6901   -4.7265    0.0000 S   0  0  0  0  0  0  0  0  0  0  0  0
   13.1182   -6.3844    0.0000 C   0  0  0  0  0  0  0  0  0  0  0  0
   13.8362   -5.1473    0.0000 O   0  0  0  0  0  0  0  0  0  0  0  0
   13.8362   -5.9706    0.0000 C   0  0  0  0  0  0  0  0  0  0  0  0
   13.1182   -7.2064    0.0000 C   0  0  0  0  0  0  0  0  0  0  0  0
   13.8352   -8.4464    0.0000 C   0  0  0  0  0  0  0  0  0  0  0  0
   13.8362   -7.6201    0.0000 C   0  0  0  0  0  0  0  0  0  0  0  0
   14.5485   -7.2078    0.0000 C   0  0  0  0  0  0  0  0  0  0  0  0
   15.2649   -7.6189    0.0000 C   0  0  0  0  0  0  0  0  0  0  0  0
   15.2669   -8.4430    0.0000 C   0  0  0  0  0  0  0  0  0  0  0  0
   14.5516   -8.8574    0.0000 C   0  0  0  0  0  0  0  0  0  0  0  0
   15.2670   -5.9644    0.0000 C   0  0  0  0  0  0  0  0  0  0  0  0
   15.9803   -7.1975    0.0000 O   0  0  0  0  0  0  0  0  0  0  0  0
   15.9803   -6.3754    0.0000 C   0  0  0  0  0  0  0  0  0  0  0  0
   15.2670   -5.1370    0.0000 C   0  0  0  0  0  0  0  0  0  0  0  0
   15.9803   -4.7218    0.0000 C   0  0  0  0  0  0  0  0  0  0  0  0
   15.9803   -3.8984    0.0000 C   0  0  0  0  0  0  0  0  0  0  0  0
   16.6936   -3.4833    0.0000 O   0  0  0  0  0  0  0  0  0  0  0  0
   17.4082   -6.3807    0.0000 C   0  0  0  0  0  0  0  0  0  0  0  0
   18.1262   -5.1394    0.0000 O   0  0  0  0  0  0  0  0  0  0  0  0
   18.1262   -5.9669    0.0000 C   0  0  0  0  0  0  0  0  0  0  0  0
   17.4082   -7.2027    0.0000 C   0  0  0  0  0  0  0  0  0  0  0  0
   18.1262   -7.6164    0.0000 C   0  0  0  0  0  0  0  0  0  0  0  0
   18.1262   -8.4385    0.0000 O   0  0  0  0  0  0  0  0  0  0  0  0
   19.5564   -5.9637    0.0000 C   0  0  0  0  0  0  0  0  0  0  0  0
   20.2697   -7.2009    0.0000 O   0  0  0  0  0  0  0  0  0  0  0  0
   20.2697   -6.3748    0.0000 C   0  0  0  0  0  0  0  0  0  0  0  0
   19.5564   -5.1362    0.0000 C   0  0  0  0  0  0  0  0  0  0  0  0
   20.2697   -4.7253    0.0000 C   0  0  0  0  0  0  0  0  0  0  0  0
   20.2697   -3.9019    0.0000 C   0  0  0  0  0  0  0  0  0  0  0  0
   20.9830   -5.1362    0.0000 C   0  0  0  0  0  0  0  0  0  0  0  0
   21.6959   -6.3783    0.0000 C   0  0  0  0  0  0  0  0  0  0  0  0
   22.4139   -5.1370    0.0000 O   0  0  0  0  0  0  0  0  0  0  0  0
   22.4139   -5.9646    0.0000 C   0  0  0  0  0  0  0  0  0  0  0  0
   21.6959   -7.2003    0.0000 C   0  0  0  0  0  0  0  0  0  0  0  0
   22.4139   -7.6141    0.0000 C   0  0  0  0  0  0  0  0  0  0  0  0
   22.4139   -8.4361    0.0000 S   0  0  0  0  0  0  0  0  0  0  0  0
   23.1278   -8.8498    0.0000 C   0  0  0  0  0  0  0  0  0  0  0  0
   23.8438   -5.9619    0.0000 C   0  0  0  0  0  0  0  0  0  0  0  0
   24.5571   -7.1950    0.0000 O   0  0  0  0  0  0  0  0  0  0  0  0
   24.5571   -6.3730    0.0000 C   0  0  0  0  0  0  0  0  0  0  0  0
   23.8439   -5.1339    0.0000 C   0  0  0  0  0  0  0  0  0  0  0  0
   25.1490   -5.1303    0.0000 C   0  0  0  0  0  0  0  0  0  0  0  0
   24.4944   -4.6302    0.0000 C   0  0  0  0  0  0  0  0  0  0  0  0
   24.7696   -3.8521    0.0000 C   0  0  0  0  0  0  0  0  0  0  0  0
   25.5934   -3.8712    0.0000 C   0  0  0  0  0  0  0  0  0  0  0  0
   26.0211   -3.1667    0.0000 C   0  0  0  0  0  0  0  0  0  0  0  0
   25.6292   -2.4441    0.0000 C   0  0  0  0  0  0  0  0  0  0  0  0
   24.8023   -2.4201    0.0000 C   0  0  0  0  0  0  0  0  0  0  0  0
   24.3745   -3.1245    0.0000 C   0  0  0  0  0  0  0  0  0  0  0  0
   25.9873   -6.3765    0.0000 C   0  0  0  0  0  0  0  0  0  0  0  0
   26.7053   -5.1352    0.0000 O   0  0  0  0  0  0  0  0  0  0  0  0
   26.7053   -5.9627    0.0000 C   0  0  0  0  0  0  0  0  0  0  0  0
   25.9873   -7.1984    0.0000 C   0  0  0  0  0  0  0  0  0  0  0  0
   26.7053   -7.6122    0.0000 S   0  0  0  0  0  0  0  0  0  0  0  0
   28.1346   -5.9633    0.0000 C   0  0  0  0  0  0  0  0  0  0  0  0
   28.8480   -7.2006    0.0000 O   0  0  0  0  0  0  0  0  0  0  0  0
   28.8480   -6.3785    0.0000 C   0  0  0  0  0  0  0  0  0  0  0  0
   -5.7838   -5.4025    0.0000 N   0  0  0  0  0  0  0  0  0  0  0  0
   -2.0766   -4.7280    0.0000 N   0  0  0  0  0  0  0  0  0  0  0  0
    1.6838   -6.3757    0.0000 N   0  0  0  0  0  0  0  0  0  0  0  0
    4.4109   -4.5898    0.0000 N   0  0  0  0  0  0  0  0  0  0  0  0
    5.9671   -8.8449    0.0000 N   0  0  0  0  0  0  0  0  0  0  0  0
    5.2658  -10.0881    0.0000 N   0  0  0  0  0  0  0  0  0  0  0  0
    6.6957  -10.0916    0.0000 N   0  0  0  0  0  0  0  0  0  0  0  0
    3.8254   -5.9601    0.0000 N   0  0  0  0  0  0  0  0  0  0  0  0
    5.9705   -6.3745    0.0000 N   0  0  0  0  0  0  0  0  0  0  0  0
    7.4023   -4.7220    0.0000 O   0  0  0  0  0  0  0  0  0  0  0  0
    8.1135   -5.9621    0.0000 N   0  0  0  0  0  0  0  0  0  0  0  0
   10.2602   -6.3738    0.0000 N   0  0  0  0  0  0  0  0  0  0  0  0
   12.4066   -5.9671    0.0000 N   0  0  0  0  0  0  0  0  0  0  0  0
   15.9929   -8.8557    0.0000 O   0  0  0  0  0  0  0  0  0  0  0  0
   14.5534   -6.3784    0.0000 N   0  0  0  0  0  0  0  0  0  0  0  0
   15.2711   -3.4842    0.0000 O   0  0  0  0  0  0  0  0  0  0  0  0
   16.6958   -5.9647    0.0000 N   0  0  0  0  0  0  0  0  0  0  0  0
   18.8463   -7.1999    0.0000 O   0  0  0  0  0  0  0  0  0  0  0  0
   18.8422   -6.3767    0.0000 N   0  0  0  0  0  0  0  0  0  0  0  0
   20.9838   -5.9617    0.0000 N   0  0  0  0  0  0  0  0  0  0  0  0
   23.1296   -6.3749    0.0000 N   0  0  0  0  0  0  0  0  0  0  0  0
   25.8283   -4.6621    0.0000 N   0  0  0  0  0  0  0  0  0  0  0  0
   25.2732   -5.9633    0.0000 N   0  0  0  0  0  0  0  0  0  0  0  0
   27.4198   -6.3752    0.0000 N   0  0  0  0  0  0  0  0  0  0  0  0
   29.5618   -5.9647    0.0000 N   0  0  0  0  0  0  0  0  0  0  0  0
  6  9  1  0
  9 10  1  0
 11 14  1  0
 14 12  2  0
 11 13  1  6
 15 16  1  0
 16 18  1  6
 18 17  2  0
 16 19  1  0
 20 21  1  0
 21 19  1  0
 20 15  1  0
 22 24  1  0
 24 23  2  0
 22 25  1  1
 25 27  1  0
 26 27  2  0
 27 28  1  0
 28 29  2  0
 29 30  1  0
 30 31  2  0
 31 32  1  0
 32 33  2  0
 33 28  1  0
 35 37  1  0
 37 36  2  0
 35 38  1  6
 38 39  1  0
 39 40  1  0
 41 43  1  1
 43 42  2  0
 41 44  1  0
 44 45  1  0
 46 49  1  0
 49 47  2  0
 46 48  1  6
 50 52  1  0
 52 51  2  0
 50 53  1  1
 53 54  1  0
 55 57  1  0
 57 56  2  0
 55 58  1  6
 58 60  1  0
 59 60  2  0
 60 61  1  0
 61 62  2  0
 62 63  1  0
 63 64  2  0
 64 59  1  0
 65 67  1  0
 67 66  2  0
 65 68  1  1
 68 69  1  0
 69 70  1  0
 70 71  2  0
 72 74  1  0
 74 73  2  0
 72 75  1  6
 75 76  1  0
 76 77  2  0
 78 80  1  0
 80 79  2  0
 78 81  1  1
 81 82  1  0
 82 83  1  0
 82 84  1  0
 85 87  1  0
 87 86  2  0
 85 88  1  6
 88 89  1  0
 89 90  1  0
 90 91  1  0
 92 94  1  0
 94 93  2  0
 92 95  1  1
 95 97  1  0
 96 97  2  0
 97 98  1  0
 98 99  2  0
 99100  1  0
100101  2  0
101102  1  0
102103  2  0
103 98  1  0
104106  1  0
106105  2  0
104107  1  6
107108  1  0
109111  1  0
111110  2  0
  4  5  1  0
 14 15  1  0
  1  4  1  0
  4  2  2  0
  1  3  1  1
  6  5  1  1
  6  8  1  0
  8  7  2  0
 34117  1  0
124 55  1  0
 52124  1  0
114 22  1  0
 18114  1  0
 63125  1  0
 34118  2  0
126 65  1  0
 57126  1  0
 70127  1  0
119 35  1  0
 24119  1  0
128 72  1  0
 67128  1  0
115 26  1  0
 29115  1  0
 76129  1  0
120 41  1  0
 37120  1  0
130 78  1  0
 74130  1  0
113 11  1  0
  8113  1  0
131 85  1  0
 80131  1  0
 44121  1  1
132 92  1  0
 87132  1  0
116 34  1  0
 40116  1  0
133 96  1  0
 99133  1  0
122 46  1  0
 43122  1  0
134104  1  0
 94134  1  0
112  1  1  0
135109  1  0
106135  1  0
123 50  1  0
 49123  1  0
111136  1  0
M  END

> <chembl_id>
CHEMBL1240699

> <chembl_pref_name>
None

$$$$

     RDKit          2D

 38 41  0  0  0  0  0  0  0  0999 V2000
    6.1188   -0.5649    0.0000 C   0  0  0  0  0  0  0  0  0  0  0  0
    5.7063   -1.2794    0.0000 C   0  0  0  0  0  0  0  0  0  0  0  0
    6.1188   -1.9938    0.0000 C   0  0  0  0  0  0  0  0  0  0  0  0
    5.7063   -2.7083    0.0000 C   0  0  0  0  0  0  0  0  0  0  0  0
    6.1188    0.8641    0.0000 C   0  0  0  0  0  0  0  0  0  0  0  0
    5.7063    1.5785    0.0000 C   0  0  0  0  0  0  0  0  0  0  0  0
    4.8813    1.5785    0.0000 N   0  0  0  0  0  0  0  0  0  0  0  0
    4.4688    0.8641    0.0000 C   0  0  0  0  0  0  0  0  0  0  0  0
    4.8813    0.1496    0.0000 C   0  0  0  0  0  0  0  0  0  0  0  0
    5.7063    0.1496    0.0000 N   0  0  0  0  0  0  0  0  0  0  0  0
    7.7688    0.8641    0.0000 N   0  0  0  0  0  0  0  0  0  0  0  0
    7.3563    1.5785    0.0000 C   0  0  0  0  0  0  0  0  0  0  0  0
    6.5313    1.5785    0.0000 C   0  0  0  0  0  0  0  0  0  0  0  0
    6.5313    0.1496    0.0000 C   0  0  0  0  0  0  0  0  0  0  0  0
    7.3563    0.1496    0.0000 C   0  0  0  0  0  0  0  0  0  0  0  0
   12.3063   -2.7083    0.0000 C   0  0  0  0  0  0  0  0  0  0  0  0
   11.4813   -2.7083    0.0000 C   0  0  0  0  0  0  0  0  0  0  0  0
   11.0688   -1.9938    0.0000 C   0  0  0  0  0  0  0  0  0  0  0  0
   11.4813   -1.2794    0.0000 C   0  0  0  0  0  0  0  0  0  0  0  0
   12.3063   -1.2794    0.0000 C   0  0  0  0  0  0  0  0  0  0  0  0
   12.7188   -1.9938    0.0000 C   0  0  0  0  0  0  0  0  0  0  0  0
   10.2438   -1.9938    0.0000 O   0  0  0  0  0  0  0  0  0  0  0  0
    9.8313   -1.2794    0.0000 C   0  0  0  0  0  0  0  0  0  0  0  0
    9.0063   -1.2794    0.0000 C   0  0  0  0  0  0  0  0  0  0  0  0
    8.5938   -0.5649    0.0000 C   0  0  0  0  0  0  0  0  0  0  0  0
    9.0063    0.1496    0.0000 C   0  0  0  0  0  0  0  0  0  0  0  0
    9.8313    0.1496    0.0000 C   0  0  0  0  0  0  0  0  0  0  0  0
   10.2438   -0.5649    0.0000 C   0  0  0  0  0  0  0  0  0  0  0  0
    8.5938    0.8641    0.0000 C   0  0  0  0  0  0  0  0  0  0  0  0
    6.1188    2.2930    0.0000 O   0  0  0  0  0  0  0  0  0  0  0  0
    4.4688   -0.5649    0.0000 O   0  0  0  0  0  0  0  0  0  0  0  0
    3.6438    0.8641    0.0000 C   0  0  0  0  0  0  0  0  0  0  0  0
    3.2313    1.5785    0.0000 C   0  0  0  0  0  0  0  0  0  0  0  0
    2.4108    1.6648    0.0000 C   0  0  0  0  0  0  0  0  0  0  0  0
    2.2393    2.4717    0.0000 C   0  0  0  0  0  0  0  0  0  0  0  0
    2.9538    2.8842    0.0000 C   0  0  0  0  0  0  0  0  0  0  0  0
    3.5669    2.3322    0.0000 C   0  0  0  0  0  0  0  0  0  0  0  0
    0.0000    0.0000    0.0000 Cl  0  0  0  0  0  0  0  0  0  0  0  0
  1  2  1  0
  2  3  1  0
  3  4  1  0
  5 10  1  0
 22 23  1  0
  6  7  1  0
 23 24  2  0
 11 15  1  0
 24 25  1  0
 12 13  1  0
 25 26  2  0
 13  5  1  0
 26 27  1  0
  5 14  1  0
 27 28  2  0
 28 23  1  0
 14 15  1  0
 26 29  1  0
 29 11  1  0
  7  8  1  0
  6 30  2  0
  8  9  1  0
  9 31  2  0
 16 17  2  0
  9 10  1  0
 17 18  1  0
 11 12  1  0
 18 19  2  0
  8 32  1  0
 32 33  1  0
 33 34  1  0
 19 20  1  0
 20 21  2  0
 21 16  1  0
 34 35  1  0
 35 36  1  0
 36 37  1  0
 37 33  1  0
  5  6  1  0
 18 22  1  0
 10  1  1  0
M  END

> <chembl_id>
CHEMBL1170694

> <chembl_pref_name>
None

$$$$

     RDKit          2D

 16 16  0  0  0  0  0  0  0  0999 V2000
    1.8583  -14.8750    0.0000 N   0  0  0  0  0  0  0  0  0  0  0  0
    2.5728  -14.4625    0.0000 C   0  0  0  0  0  0  0  0  0  0  0  0
    3.2873  -14.8750    0.0000 P   0  0  0  0  0  0  0  0  0  0  0  0
    2.5728  -13.6375    0.0000 C   0  0  0  0  0  0  0  0  0  0  0  0
    3.2873  -15.7000    0.0000 O   0  0  0  0  0  0  0  0  0  0  0  0
    4.0017  -14.4625    0.0000 O   0  0  0  0  0  0  0  0  0  0  0  0
    2.7039  -15.4584    0.0000 O   0  0  0  0  0  0  0  0  0  0  0  0
    4.7162  -14.8750    0.0000 C   0  0  0  0  0  0  0  0  0  0  0  0
    4.7139  -15.7011    0.0000 C   0  0  0  0  0  0  0  0  0  0  0  0
    5.4275  -16.1135    0.0000 C   0  0  0  0  0  0  0  0  0  0  0  0
    6.1430  -15.7009    0.0000 C   0  0  0  0  0  0  0  0  0  0  0  0
    6.1403  -14.8717    0.0000 C   0  0  0  0  0  0  0  0  0  0  0  0
    5.4261  -14.4630    0.0000 C   0  0  0  0  0  0  0  0  0  0  0  0
    1.8583  -13.2250    0.0000 C   0  0  0  0  0  0  0  0  0  0  0  0
    5.4236  -13.6380    0.0000 C   0  0  0  0  0  0  0  0  0  0  0  0
    5.4271  -16.9385    0.0000 C   0  0  0  0  0  0  0  0  0  0  0  0
  8  9  2  0
  3  5  1  0
  9 10  1  0
  2  3  1  0
 10 11  2  0
  3  6  1  0
 11 12  1  0
  1  2  1  0
 12 13  2  0
 13  8  1  0
  3  7  2  0
  4 14  1  0
  2  4  1  0
 13 15  1  0
  6  8  1  0
 10 16  1  0
M  END

> <chembl_id>
CHEMBL1090693

> <chembl_pref_name>
None

$$$$

     RDKit          2D

 31 34  0  0  0  0  0  0  0  0999 V2000
   -4.4553    0.2948    0.0000 S   0  0  0  0  0  0  0  0  0  0  0  0
   -4.8678   -0.4196    0.0000 O   0  0  0  0  0  0  0  0  0  0  0  0
   -4.0428    1.0093    0.0000 O   0  0  0  0  0  0  0  0  0  0  0  0
   -7.3132    1.9448    0.0000 O   0  0  0  0  0  0  0  0  0  0  0  0
   -8.7421    0.2948    0.0000 O   0  0  0  0  0  0  0  0  0  0  0  0
   -1.5974   -2.1802    0.0000 O   0  0  0  0  0  0  0  0  0  0  0  0
   -3.7408   -0.1177    0.0000 N   0  0  0  0  0  0  0  0  0  0  0  0
   -7.3132    0.2948    0.0000 N   0  0  0  0  0  0  0  0  0  0  0  0
   -0.8829   -0.9427    0.0000 N   0  0  0  0  0  0  0  0  0  0  0  0
   -5.1698    0.7073    0.0000 C   0  0  0  0  0  0  0  0  0  0  0  0
   -6.5987    0.7073    0.0000 C   0  0  0  0  0  0  0  0  0  0  0  0
   -5.8842    0.2948    0.0000 C   0  0  0  0  0  0  0  0  0  0  0  0
   -6.5987    1.5323    0.0000 C   0  0  0  0  0  0  0  0  0  0  0  0
   -5.1698    1.5323    0.0000 C   0  0  0  0  0  0  0  0  0  0  0  0
   -5.8842    1.9448    0.0000 C   0  0  0  0  0  0  0  0  0  0  0  0
   -3.0264    0.2948    0.0000 C   0  0  0  0  0  0  0  0  0  0  0  0
   -3.7408   -0.9427    0.0000 C   0  0  0  0  0  0  0  0  0  0  0  0
   -2.3119   -0.9427    0.0000 C   0  0  0  0  0  0  0  0  0  0  0  0
   -2.3119   -0.1177    0.0000 C   0  0  0  0  0  0  0  0  0  0  0  0
   -3.0264   -1.3552    0.0000 C   0  0  0  0  0  0  0  0  0  0  0  0
   -8.0277    0.7073    0.0000 C   0  0  0  0  0  0  0  0  0  0  0  0
   -1.5974   -1.3552    0.0000 C   0  0  0  0  0  0  0  0  0  0  0  0
   -8.0277    1.5323    0.0000 C   0  0  0  0  0  0  0  0  0  0  0  0
   -0.1685   -1.3552    0.0000 C   0  0  0  0  0  0  0  0  0  0  0  0
    0.5460   -0.9427    0.0000 C   0  0  0  0  0  0  0  0  0  0  0  0
   -0.1685   -2.1802    0.0000 C   0  0  0  0  0  0  0  0  0  0  0  0
    1.2605   -2.1802    0.0000 C   0  0  0  0  0  0  0  0  0  0  0  0
    1.2605   -1.3552    0.0000 C   0  0  0  0  0  0  0  0  0  0  0  0
    0.5460   -2.5927    0.0000 C   0  0  0  0  0  0  0  0  0  0  0  0
    1.9749   -2.5927    0.0000 C   0  0  0  0  0  0  0  0  0  0  0  0
    2.6894   -2.1802    0.0000 C   0  0  0  0  0  0  0  0  0  0  0  0
  1  2  2  0
  1  3  2  0
  1  7  1  0
  1 10  1  0
  4 13  1  0
  4 23  1  0
  5 21  2  0
  6 22  2  0
  7 16  1  0
  7 17  1  0
  8 11  1  0
  8 21  1  0
  9 22  1  0
  9 24  1  0
 10 12  1  0
 10 14  2  0
 11 12  2  0
 11 13  1  0
 13 15  2  0
 14 15  1  0
 16 19  1  0
 17 20  1  0
 18 19  1  0
 18 20  1  0
 18 22  1  0
 21 23  1  0
 24 25  2  0
 24 26  1  0
 25 28  1  0
 26 29  2  0
 27 28  2  0
 27 29  1  0
 27 30  1  0
 30 31  1  0
M  END

> <chembl_id>
CHEMBL1406974

> <chembl_pref_name>
None

$$$$
